<?xml version="1.0" encoding="UTF-8"?>

<!-- generated on 2025-06-23 12:02:08.469436 by randomTrips.py v1_23_1+0000-676720d13f6
<configuration>
    <net-file value="C:\Users\009tu\Downloads\SRIP\traffic_prediction\urban\urban.net.xml"/>
    <output-trip-file value="C:\Users\009tu\Downloads\SRIP\traffic_prediction\urban\evening_peak.trips.xml"/>
    <prefix value="evening_"/>
    <begin value="61200.0"/>
    <end value="68400.0"/>
    <period value="1.0"/>
</configuration>
-->

<routes xmlns:xsi="http://www.w3.org/2001/XMLSchema-instance" xsi:noNamespaceSchemaLocation="http://sumo.dlr.de/xsd/routes_file.xsd">
    <trip id="evening_0" depart="61200.00" from="190044995#1" to="-1183833462#1"/>
    <trip id="evening_1" depart="61201.00" from="-213174155#8" to="-213173970#6"/>
    <trip id="evening_2" depart="61202.00" from="213173972#2" to="190067592#7"/>
    <trip id="evening_3" depart="61203.00" from="27061757#10" to="-190041601#8"/>
    <trip id="evening_4" depart="61204.00" from="-422380345#0" to="-1184984986#1"/>
    <trip id="evening_5" depart="61205.00" from="-213173949#1" to="141596955#2"/>
    <trip id="evening_6" depart="61206.00" from="-1183888097#0" to="-212744138#2"/>
    <trip id="evening_7" depart="61207.00" from="190049563#3" to="190041537"/>
    <trip id="evening_8" depart="61208.00" from="-213173951#4" to="190041714#3"/>
    <trip id="evening_9" depart="61209.00" from="213174428" to="-1081726156#19"/>
    <trip id="evening_10" depart="61210.00" from="213174412#5" to="212744579#4"/>
    <trip id="evening_11" depart="61211.00" from="-213174679" to="-190049601#0"/>
    <trip id="evening_12" depart="61212.00" from="642940947" to="-213174808#0"/>
    <trip id="evening_13" depart="61213.00" from="-190041618#1" to="-190041648#1"/>
    <trip id="evening_14" depart="61214.00" from="213174810#0" to="190041736#4"/>
    <trip id="evening_15" depart="61215.00" from="213174412#9" to="213173991#2"/>
    <trip id="evening_16" depart="61216.00" from="190041498#9" to="649374910#7"/>
    <trip id="evening_17" depart="61217.00" from="-213174875#0" to="190041601#3"/>
    <trip id="evening_18" depart="61218.00" from="213174642#0" to="190041757#8"/>
    <trip id="evening_19" depart="61219.00" from="213174857#5" to="190041681#0"/>
    <trip id="evening_20" depart="61220.00" from="212682239#0" to="-141596955#3"/>
    <trip id="evening_21" depart="61221.00" from="-213173970#7" to="-213174391#0"/>
    <trip id="evening_22" depart="61222.00" from="-190041517#6" to="-213173983#5"/>
    <trip id="evening_23" depart="61223.00" from="-190041647#0" to="-213174319#1"/>
    <trip id="evening_24" depart="61224.00" from="190041757#7" to="-27035161#0"/>
    <trip id="evening_25" depart="61225.00" from="-213174857#0" to="-213173943#1"/>
    <trip id="evening_26" depart="61226.00" from="-213174127#1" to="422382328#0"/>
    <trip id="evening_27" depart="61227.00" from="190049562#6" to="190041745#3"/>
    <trip id="evening_28" depart="61228.00" from="-190049624#2" to="213173991#1"/>
    <trip id="evening_29" depart="61229.00" from="-190049602#2" to="-413517708#1"/>
    <trip id="evening_30" depart="61230.00" from="706863681" to="190049593#6"/>
    <trip id="evening_31" depart="61231.00" from="190041517#18" to="212682110#2"/>
    <trip id="evening_32" depart="61232.00" from="213174791#3" to="213174313"/>
    <trip id="evening_33" depart="61233.00" from="-213173972#10" to="-1191780192#1"/>
    <trip id="evening_34" depart="61234.00" from="-213174435#0" to="-213174170"/>
    <trip id="evening_35" depart="61235.00" from="-212744537#5" to="422395144"/>
    <trip id="evening_36" depart="61236.00" from="24501897#9" to="-213174568#1"/>
    <trip id="evening_37" depart="61237.00" from="190049591" to="-422142144#0"/>
    <trip id="evening_38" depart="61238.00" from="420673774#0" to="1094482620#1"/>
    <trip id="evening_39" depart="61239.00" from="-213174107" to="-213174030#0"/>
    <trip id="evening_40" depart="61240.00" from="190041517#29" to="-213174155#15"/>
    <trip id="evening_41" depart="61241.00" from="190041623#0" to="35330837"/>
    <trip id="evening_42" depart="61242.00" from="-413300370#0" to="-213173963#3"/>
    <trip id="evening_43" depart="61243.00" from="947622263" to="190021001#2"/>
    <trip id="evening_44" depart="61244.00" from="-190041601#8" to="-141596957#1"/>
    <trip id="evening_45" depart="61245.00" from="-190041699#1" to="190044996#3"/>
    <trip id="evening_46" depart="61246.00" from="213174339#0" to="-649374910#8"/>
    <trip id="evening_47" depart="61247.00" from="-190041511#10" to="-420673774#0"/>
    <trip id="evening_48" depart="61248.00" from="805980075#0" to="190041511#9"/>
    <trip id="evening_49" depart="61249.00" from="649201006#1" to="213174869#2"/>
    <trip id="evening_50" depart="61250.00" from="-1081726156#4" to="213173983#0"/>
    <trip id="evening_51" depart="61251.00" from="190054534#5" to="190041517#17"/>
    <trip id="evening_52" depart="61252.00" from="-213174127#1" to="190049595#1"/>
    <trip id="evening_53" depart="61253.00" from="-190041703#3" to="1053530941#0"/>
    <trip id="evening_54" depart="61254.00" from="-805980075#1" to="642940946-AddedOnRampEdge"/>
    <trip id="evening_55" depart="61255.00" from="24501897#7" to="-213174155#17"/>
    <trip id="evening_56" depart="61256.00" from="1206101870" to="-190054534#8"/>
    <trip id="evening_57" depart="61257.00" from="420673773#0" to="24501897#7"/>
    <trip id="evening_58" depart="61258.00" from="-213174340#1" to="190049593#3"/>
    <trip id="evening_59" depart="61259.00" from="190041715#2" to="-190049593#4"/>
    <trip id="evening_60" depart="61260.00" from="213174095#2" to="190041517#23"/>
    <trip id="evening_61" depart="61261.00" from="213174177#1" to="190041512#10"/>
    <trip id="evening_62" depart="61262.00" from="-1051196593#1" to="-213174682#1"/>
    <trip id="evening_63" depart="61263.00" from="-1088381041#1" to="422380345#0"/>
    <trip id="evening_64" depart="61264.00" from="24501904#0" to="213174727"/>
    <trip id="evening_65" depart="61265.00" from="-213174412#13" to="-190041508#2"/>
    <trip id="evening_66" depart="61266.00" from="24501900#3" to="542597846#1"/>
    <trip id="evening_67" depart="61267.00" from="-190041575#0" to="1289859818"/>
    <trip id="evening_68" depart="61268.00" from="-190041512#5" to="213174155#9"/>
    <trip id="evening_69" depart="61269.00" from="213174104#2" to="-190041745#0"/>
    <trip id="evening_70" depart="61270.00" from="1082227330" to="190041586#0"/>
    <trip id="evening_71" depart="61271.00" from="-213174107" to="24501900#3"/>
    <trip id="evening_72" depart="61272.00" from="-422380348" to="-213173945#2"/>
    <trip id="evening_73" depart="61273.00" from="190041502#5" to="213173991#3"/>
    <trip id="evening_74" depart="61274.00" from="-212682239#1" to="-213174542#1"/>
    <trip id="evening_75" depart="61275.00" from="803646987#3" to="190049622#1"/>
    <trip id="evening_76" depart="61276.00" from="-422411832" to="190041502#1"/>
    <trip id="evening_77" depart="61277.00" from="-190041721#2" to="-213173972#11"/>
    <trip id="evening_78" depart="61278.00" from="-213174642#2" to="190041714#0"/>
    <trip id="evening_79" depart="61279.00" from="-213173972#13" to="-213173966#2"/>
    <trip id="evening_80" depart="61280.00" from="-190041517#0" to="190049563#2"/>
    <trip id="evening_81" depart="61281.00" from="-213173972#10" to="413300366#0"/>
    <trip id="evening_82" depart="61282.00" from="213174857#0" to="-190041517#19"/>
    <trip id="evening_83" depart="61283.00" from="-213173983#7" to="190054560#2"/>
    <trip id="evening_84" depart="61284.00" from="-213173943#3" to="-190041747#5"/>
    <trip id="evening_85" depart="61285.00" from="422380352#0" to="190041643#1"/>
    <trip id="evening_86" depart="61286.00" from="1081726156#9" to="213174358#1"/>
    <trip id="evening_87" depart="61287.00" from="213174417#0" to="-212681457#2"/>
    <trip id="evening_88" depart="61288.00" from="-190041628#0" to="-946674108#1"/>
    <trip id="evening_89" depart="61289.00" from="-422380349#1" to="1184981455#0"/>
    <trip id="evening_90" depart="61290.00" from="213173963#3" to="190067592#10"/>
    <trip id="evening_91" depart="61291.00" from="666283340#2" to="-190041652#1"/>
    <trip id="evening_92" depart="61292.00" from="-420673773#4" to="-213174811#1"/>
    <trip id="evening_93" depart="61293.00" from="213174857#5" to="-213174086#1"/>
    <trip id="evening_94" depart="61294.00" from="-190054563#1" to="1082004450"/>
    <trip id="evening_95" depart="61295.00" from="-422380345#0" to="-213174321#0"/>
    <trip id="evening_96" depart="61296.00" from="-213173999#3" to="422135515#7"/>
    <trip id="evening_97" depart="61297.00" from="-649374910#5" to="213174869#4"/>
    <trip id="evening_98" depart="61298.00" from="190041512#10" to="-190041498#0"/>
    <trip id="evening_99" depart="61299.00" from="950014768#1-AddedOnRampEdge" to="213174791#0"/>
    <trip id="evening_100" depart="61300.00" from="646359659" to="422350711"/>
    <trip id="evening_101" depart="61301.00" from="213174810#3" to="-190049628#3"/>
    <trip id="evening_102" depart="61302.00" from="1181963134#1" to="-213173945#8"/>
    <trip id="evening_103" depart="61303.00" from="-420673773#0" to="-190041508#4"/>
    <trip id="evening_104" depart="61304.00" from="-213174875#2" to="688637131"/>
    <trip id="evening_105" depart="61305.00" from="-213174110" to="213174358#0"/>
    <trip id="evening_106" depart="61306.00" from="-947622263" to="-652167952"/>
    <trip id="evening_107" depart="61307.00" from="642940947" to="946674108#0"/>
    <trip id="evening_108" depart="61308.00" from="190041517#14" to="213173972#8"/>
    <trip id="evening_109" depart="61309.00" from="-190049574#1" to="-213174412#8"/>
    <trip id="evening_110" depart="61310.00" from="646359659" to="190041686#2"/>
    <trip id="evening_111" depart="61311.00" from="190041507#3" to="213174104#0"/>
    <trip id="evening_112" depart="61312.00" from="-190041498#7" to="190041703#1"/>
    <trip id="evening_113" depart="61313.00" from="1272670170#0" to="213174856#0"/>
    <trip id="evening_114" depart="61314.00" from="-190049589" to="642941241#2"/>
    <trip id="evening_115" depart="61315.00" from="-190041517#7" to="-190054576#4"/>
    <trip id="evening_116" depart="61316.00" from="190041666#3" to="190067592#3"/>
    <trip id="evening_117" depart="61317.00" from="-213173977#4" to="-190041733#0"/>
    <trip id="evening_118" depart="61318.00" from="27035161#4" to="-213174018"/>
    <trip id="evening_119" depart="61319.00" from="190041666#1" to="190041758#0"/>
    <trip id="evening_120" depart="61320.00" from="-422350711" to="190041703#0"/>
    <trip id="evening_121" depart="61321.00" from="141596942#1" to="422382324"/>
    <trip id="evening_122" depart="61322.00" from="-212744138#2" to="213173972#2"/>
    <trip id="evening_123" depart="61323.00" from="-213173984#2" to="-422142144#0"/>
    <trip id="evening_124" depart="61324.00" from="190049628#6" to="-213174433#0"/>
    <trip id="evening_125" depart="61325.00" from="-213174442#0" to="213174127#0"/>
    <trip id="evening_126" depart="61326.00" from="-190041517#13" to="1093777821"/>
    <trip id="evening_127" depart="61327.00" from="950014767#1" to="947622263"/>
    <trip id="evening_128" depart="61328.00" from="-190041517#15" to="-213173945#6"/>
    <trip id="evening_129" depart="61329.00" from="-213174110" to="422380354#2"/>
    <trip id="evening_130" depart="61330.00" from="24501910#1" to="25524730"/>
    <trip id="evening_131" depart="61331.00" from="-213174856#5" to="-190049610#1"/>
    <trip id="evening_132" depart="61332.00" from="213174682#0" to="213173945#9"/>
    <trip id="evening_133" depart="61333.00" from="190041718#2" to="753609123"/>
    <trip id="evening_134" depart="61334.00" from="190049577" to="-1081726156#22"/>
    <trip id="evening_135" depart="61335.00" from="213174508" to="-213174428"/>
    <trip id="evening_136" depart="61336.00" from="190049610#5" to="422390698"/>
    <trip id="evening_137" depart="61337.00" from="-190041744#3" to="-190041721#1"/>
    <trip id="evening_138" depart="61338.00" from="-190041685" to="190041601#6"/>
    <trip id="evening_139" depart="61339.00" from="-213174155#16" to="190041742#0"/>
    <trip id="evening_140" depart="61340.00" from="212744579#1" to="-212744529#0"/>
    <trip id="evening_141" depart="61341.00" from="190041757#2" to="-213174155#2"/>
    <trip id="evening_142" depart="61342.00" from="1183889274" to="413290233"/>
    <trip id="evening_143" depart="61343.00" from="213174805#2" to="-190041628#1"/>
    <trip id="evening_144" depart="61344.00" from="-422380349#1" to="-213174307#0"/>
    <trip id="evening_145" depart="61345.00" from="-1081726156#11" to="213174266"/>
    <trip id="evening_146" depart="61346.00" from="190041758#1" to="-213174155#13"/>
    <trip id="evening_147" depart="61347.00" from="213173983#1" to="190041601#2"/>
    <trip id="evening_148" depart="61348.00" from="-422382324" to="-1081726156#27"/>
    <trip id="evening_149" depart="61349.00" from="-190041517#20" to="27035157#7"/>
    <trip id="evening_150" depart="61350.00" from="35330922#1" to="190041543"/>
    <trip id="evening_151" depart="61351.00" from="213174688#0" to="190041695#1"/>
    <trip id="evening_152" depart="61352.00" from="-190049562#2" to="-190041744#0"/>
    <trip id="evening_153" depart="61353.00" from="-213174412#16" to="35330922#2"/>
    <trip id="evening_154" depart="61354.00" from="213174358#4" to="213174869#2"/>
    <trip id="evening_155" depart="61355.00" from="28534454" to="-213173943#2"/>
    <trip id="evening_156" depart="61356.00" from="-213173999#2" to="-190041687#1"/>
    <trip id="evening_157" depart="61357.00" from="213174232" to="27035161#1"/>
    <trip id="evening_158" depart="61358.00" from="-420677667#0" to="190041758#4"/>
    <trip id="evening_159" depart="61359.00" from="-190049572" to="422380347"/>
    <trip id="evening_160" depart="61360.00" from="213174869#0" to="652238164#3"/>
    <trip id="evening_161" depart="61361.00" from="213174442#0" to="27035157#3"/>
    <trip id="evening_162" depart="61362.00" from="-1183833462#0" to="213174018"/>
    <trip id="evening_163" depart="61363.00" from="-213174590#1" to="422380349#1"/>
    <trip id="evening_164" depart="61364.00" from="213174412#13" to="213174875#2"/>
    <trip id="evening_165" depart="61365.00" from="213174442#0" to="-213174158#1"/>
    <trip id="evening_166" depart="61366.00" from="213174313" to="-190041703#7"/>
    <trip id="evening_167" depart="61367.00" from="24501893#1" to="213174865#1"/>
    <trip id="evening_168" depart="61368.00" from="-213173963#0" to="213174568#0"/>
    <trip id="evening_169" depart="61369.00" from="1053530942" to="-213174485"/>
    <trip id="evening_170" depart="61370.00" from="213174358#2" to="-213173972#5"/>
    <trip id="evening_171" depart="61371.00" from="-1181963134#0" to="-212682110#3"/>
    <trip id="evening_172" depart="61372.00" from="-213174531#0" to="213174878#0"/>
    <trip id="evening_173" depart="61373.00" from="642941242" to="-213174321#2"/>
    <trip id="evening_174" depart="61374.00" from="190044995#2" to="-422380345#0"/>
    <trip id="evening_175" depart="61375.00" from="652238164#7" to="190041517#15"/>
    <trip id="evening_176" depart="61376.00" from="422382326#0" to="-190041721#1"/>
    <trip id="evening_177" depart="61377.00" from="649201006#0" to="-190054534#8"/>
    <trip id="evening_178" depart="61378.00" from="642941240" to="-213174155#7"/>
    <trip id="evening_179" depart="61379.00" from="-190041695#0" to="1053530941#0"/>
    <trip id="evening_180" depart="61380.00" from="213173963#1" to="-213174564"/>
    <trip id="evening_181" depart="61381.00" from="190041703#9" to="190041495#2"/>
    <trip id="evening_182" depart="61382.00" from="-27035161#1" to="190041677#1"/>
    <trip id="evening_183" depart="61383.00" from="-213174057" to="213173963#3"/>
    <trip id="evening_184" depart="61384.00" from="-1055445115#0" to="422347307"/>
    <trip id="evening_185" depart="61385.00" from="190041502#2" to="213173977#1"/>
    <trip id="evening_186" depart="61386.00" from="213173983#3" to="190054576#1"/>
    <trip id="evening_187" depart="61387.00" from="-213174827#0" to="-190041517#17"/>
    <trip id="evening_188" depart="61388.00" from="190049618#1" to="-213174786#1"/>
    <trip id="evening_189" depart="61389.00" from="-213174428" to="213174822#0"/>
    <trip id="evening_190" depart="61390.00" from="213173943#2" to="-213174435#0"/>
    <trip id="evening_191" depart="61391.00" from="-213174412#18" to="-422382329#0"/>
    <trip id="evening_192" depart="61392.00" from="-420673773#4" to="-213174412#5"/>
    <trip id="evening_193" depart="61393.00" from="-190041734#0" to="-649374910#3"/>
    <trip id="evening_194" depart="61394.00" from="422382327#1" to="190067592#9"/>
    <trip id="evening_195" depart="61395.00" from="35330703#0" to="190041755#1"/>
    <trip id="evening_196" depart="61396.00" from="-213174358#6" to="190041565"/>
    <trip id="evening_197" depart="61397.00" from="-1051196593#1" to="-213174358#6"/>
    <trip id="evening_198" depart="61398.00" from="-422382329#0" to="190041686#4"/>
    <trip id="evening_199" depart="61399.00" from="190049585" to="1183888098"/>
    <trip id="evening_200" depart="61400.00" from="-649374910#2" to="-213173945#8"/>
    <trip id="evening_201" depart="61401.00" from="1082004450" to="38133453#0"/>
    <trip id="evening_202" depart="61402.00" from="213174358#4" to="-190054534#12"/>
    <trip id="evening_203" depart="61403.00" from="-190041563" to="190041498#7"/>
    <trip id="evening_204" depart="61404.00" from="190041755#1" to="-213174801#1"/>
    <trip id="evening_205" depart="61405.00" from="213174522" to="213174117"/>
    <trip id="evening_206" depart="61406.00" from="190054534#1" to="-213173972#10"/>
    <trip id="evening_207" depart="61407.00" from="-212682110#1" to="-1183833462#0"/>
    <trip id="evening_208" depart="61408.00" from="-213173991#3" to="1197002267#6"/>
    <trip id="evening_209" depart="61409.00" from="213174811#2" to="-190041517#24"/>
    <trip id="evening_210" depart="61410.00" from="-422135515#2" to="190049562#7"/>
    <trip id="evening_211" depart="61411.00" from="-190244327" to="212744577#1"/>
    <trip id="evening_212" depart="61412.00" from="1189327978#2" to="-213173999#1"/>
    <trip id="evening_213" depart="61413.00" from="190049593#1" to="-1081726156#16"/>
    <trip id="evening_214" depart="61414.00" from="213173994#2" to="213174258"/>
    <trip id="evening_215" depart="61415.00" from="-190041681#2" to="-706863680"/>
    <trip id="evening_216" depart="61416.00" from="-190054534#1" to="642940954#3"/>
    <trip id="evening_217" depart="61417.00" from="1380661694#4" to="-190041496"/>
    <trip id="evening_218" depart="61418.00" from="-213173999#1" to="213174822#0"/>
    <trip id="evening_219" depart="61419.00" from="-995275111" to="213174442#1"/>
    <trip id="evening_220" depart="61420.00" from="190049624#1" to="753609129#0"/>
    <trip id="evening_221" depart="61421.00" from="190041677#0" to="642594619#0"/>
    <trip id="evening_222" depart="61422.00" from="27061757#0" to="190041747#7"/>
    <trip id="evening_223" depart="61423.00" from="213173943#1" to="141596955#1"/>
    <trip id="evening_224" depart="61424.00" from="213174642#3" to="190041565"/>
    <trip id="evening_225" depart="61425.00" from="27061757#5" to="213174088#2"/>
    <trip id="evening_226" depart="61426.00" from="1082081470#1" to="-213174141"/>
    <trip id="evening_227" depart="61427.00" from="-213173997#2" to="190049593#0"/>
    <trip id="evening_228" depart="61428.00" from="213174104#2" to="190041507#0"/>
    <trip id="evening_229" depart="61429.00" from="190041745#2" to="-213174259#0"/>
    <trip id="evening_230" depart="61430.00" from="-190041517#26" to="-213174358#3"/>
    <trip id="evening_231" depart="61431.00" from="-213174155#15" to="-213174642#1"/>
    <trip id="evening_232" depart="61432.00" from="190041503#0" to="-190041757#7"/>
    <trip id="evening_233" depart="61433.00" from="-213173972#2" to="212744529#1"/>
    <trip id="evening_234" depart="61434.00" from="212744047#1" to="-190041512#2"/>
    <trip id="evening_235" depart="61435.00" from="-420998441#0" to="190041517#6"/>
    <trip id="evening_236" depart="61436.00" from="-422135515#6" to="-212744577#0"/>
    <trip id="evening_237" depart="61437.00" from="-422380338" to="412334555"/>
    <trip id="evening_238" depart="61438.00" from="190041621#0" to="212744537#3"/>
    <trip id="evening_239" depart="61439.00" from="213174853#1" to="213174237#0"/>
    <trip id="evening_240" depart="61440.00" from="-213174878#3" to="-1081726156#17"/>
    <trip id="evening_241" depart="61441.00" from="-213174791#2" to="213174145"/>
    <trip id="evening_242" depart="61442.00" from="213174822#1" to="642940946"/>
    <trip id="evening_243" depart="61443.00" from="-422350711" to="213174101#2"/>
    <trip id="evening_244" depart="61444.00" from="190041511#1" to="190041736#3"/>
    <trip id="evening_245" depart="61445.00" from="-213173951#5" to="-213173963#3"/>
    <trip id="evening_246" depart="61446.00" from="-422395145" to="-1184981457"/>
    <trip id="evening_247" depart="61447.00" from="-213174627#1" to="190067602#3"/>
    <trip id="evening_248" depart="61448.00" from="-420673775" to="-190049625#3"/>
    <trip id="evening_249" depart="61449.00" from="1081726156#21" to="-190041744#0"/>
    <trip id="evening_250" depart="61450.00" from="190041736#5" to="-1184933659"/>
    <trip id="evening_251" depart="61451.00" from="-27061757#9" to="190041619#1"/>
    <trip id="evening_252" depart="61452.00" from="-1183888097#1" to="190049602#0"/>
    <trip id="evening_253" depart="61453.00" from="-190041745#3" to="1181963135#0"/>
    <trip id="evening_254" depart="61454.00" from="-141596956#1" to="-413517708#0"/>
    <trip id="evening_255" depart="61455.00" from="-212744579#0" to="-213174699#0"/>
    <trip id="evening_256" depart="61456.00" from="213174088#2" to="-413517708#0"/>
    <trip id="evening_257" depart="61457.00" from="213173997#2" to="213174727"/>
    <trip id="evening_258" depart="61458.00" from="-213174030#1" to="-190041584"/>
    <trip id="evening_259" depart="61459.00" from="-1088381041#1" to="190041517#23"/>
    <trip id="evening_260" depart="61460.00" from="995275125" to="-213174857#1"/>
    <trip id="evening_261" depart="61461.00" from="190049563#4" to="213174336#3"/>
    <trip id="evening_262" depart="61462.00" from="190049563#9" to="213174152#1"/>
    <trip id="evening_263" depart="61463.00" from="542597846#0" to="-212744167#1"/>
    <trip id="evening_264" depart="61464.00" from="-1088381042#0" to="-190049593#3"/>
    <trip id="evening_265" depart="61465.00" from="-190041733#2" to="190054562#1"/>
    <trip id="evening_266" depart="61466.00" from="190041521" to="-213173953#2"/>
    <trip id="evening_267" depart="61467.00" from="212681457#0" to="213174238"/>
    <trip id="evening_268" depart="61468.00" from="-190049618#1" to="190041744#1"/>
    <trip id="evening_269" depart="61469.00" from="213173988#0" to="-190041718#3"/>
    <trip id="evening_270" depart="61470.00" from="213174530#1" to="646056699"/>
    <trip id="evening_271" depart="61471.00" from="-190041687#2" to="-1183833464"/>
    <trip id="evening_272" depart="61472.00" from="-213174412#8" to="190067592#9"/>
    <trip id="evening_273" depart="61473.00" from="642940948#1" to="-422347306"/>
    <trip id="evening_274" depart="61474.00" from="212744537#1" to="-190041517#6"/>
    <trip id="evening_275" depart="61475.00" from="190060817" to="190044996#3"/>
    <trip id="evening_276" depart="61476.00" from="-190041649#0" to="213174274"/>
    <trip id="evening_277" depart="61477.00" from="213174811#4" to="190041733#4"/>
    <trip id="evening_278" depart="61478.00" from="-190041721#2" to="666283341"/>
    <trip id="evening_279" depart="61479.00" from="213174244#2" to="-213174856#0"/>
    <trip id="evening_280" depart="61480.00" from="-422382326#1" to="-27061757#18"/>
    <trip id="evening_281" depart="61481.00" from="1289783132#0" to="-213174812#0"/>
    <trip id="evening_282" depart="61482.00" from="213174811#2" to="213174642#0"/>
    <trip id="evening_283" depart="61483.00" from="-190041677#2" to="642941241#2"/>
    <trip id="evening_284" depart="61484.00" from="190041757#6" to="213174688#3"/>
    <trip id="evening_285" depart="61485.00" from="212744104#0" to="1055445114"/>
    <trip id="evening_286" depart="61486.00" from="213173972#0" to="646359659"/>
    <trip id="evening_287" depart="61487.00" from="-213174155#10" to="213174499#0"/>
    <trip id="evening_288" depart="61488.00" from="190041502#2" to="1289858228#0"/>
    <trip id="evening_289" depart="61489.00" from="-422395144" to="213173994#1"/>
    <trip id="evening_290" depart="61490.00" from="-213174145" to="213174853#0"/>
    <trip id="evening_291" depart="61491.00" from="213174642#4" to="-190041601#8"/>
    <trip id="evening_292" depart="61492.00" from="24501910#4" to="-213173999#1"/>
    <trip id="evening_293" depart="61493.00" from="1081726156#15" to="190041747#0"/>
    <trip id="evening_294" depart="61494.00" from="-213174875#2" to="-1184981455#1"/>
    <trip id="evening_295" depart="61495.00" from="213174811#6" to="-190054556"/>
    <trip id="evening_296" depart="61496.00" from="-212744579#1" to="213174417#1"/>
    <trip id="evening_297" depart="61497.00" from="-213174680#0" to="25878301-AddedOffRampEdge"/>
    <trip id="evening_298" depart="61498.00" from="212681496#2" to="-213174277#1"/>
    <trip id="evening_299" depart="61499.00" from="-1081726156#29" to="544221623"/>
    <trip id="evening_300" depart="61500.00" from="-190041575#0" to="213173977#3"/>
    <trip id="evening_301" depart="61501.00" from="1183889274" to="213174155#2"/>
    <trip id="evening_302" depart="61502.00" from="190060817" to="190049611"/>
    <trip id="evening_303" depart="61503.00" from="1184981457" to="213174412#14"/>
    <trip id="evening_304" depart="61504.00" from="-190041619#0" to="-213173970#2"/>
    <trip id="evening_305" depart="61505.00" from="190067592#11" to="-213174499#0"/>
    <trip id="evening_306" depart="61506.00" from="190041603#9" to="1197002267#0"/>
    <trip id="evening_307" depart="61507.00" from="190041495#0" to="-706863681"/>
    <trip id="evening_308" depart="61508.00" from="213173986#3" to="-213174788#1"/>
    <trip id="evening_309" depart="61509.00" from="212682110#2" to="-213174237#1"/>
    <trip id="evening_310" depart="61510.00" from="-213174018" to="-190041733#2"/>
    <trip id="evening_311" depart="61511.00" from="-190060798" to="-190041728#2"/>
    <trip id="evening_312" depart="61512.00" from="190041498#8" to="213174174"/>
    <trip id="evening_313" depart="61513.00" from="-190054534#6" to="-213173951#4"/>
    <trip id="evening_314" depart="61514.00" from="1126739889#0" to="213173986#0"/>
    <trip id="evening_315" depart="61515.00" from="649374910#7" to="190041508#2"/>
    <trip id="evening_316" depart="61516.00" from="-213174244#3" to="-190041677#1"/>
    <trip id="evening_317" depart="61517.00" from="-190067602#4" to="-213173972#5"/>
    <trip id="evening_318" depart="61518.00" from="-190054534#2" to="-1082081470#0"/>
    <trip id="evening_319" depart="61519.00" from="190041498#3" to="-213174258"/>
    <trip id="evening_320" depart="61520.00" from="649374910#11" to="190041601#6"/>
    <trip id="evening_321" depart="61521.00" from="190067602#3" to="-190041742#3"/>
    <trip id="evening_322" depart="61522.00" from="213174875#0" to="1312224129"/>
    <trip id="evening_323" depart="61523.00" from="24501893#3" to="190041655"/>
    <trip id="evening_324" depart="61524.00" from="1081726156#27" to="1081726156#16"/>
    <trip id="evening_325" depart="61525.00" from="-190054534#4" to="-190041498#10"/>
    <trip id="evening_326" depart="61526.00" from="422382328#1" to="1236879935#1"/>
    <trip id="evening_327" depart="61527.00" from="213174545#0" to="-422380348"/>
    <trip id="evening_328" depart="61528.00" from="-190041517#17" to="190049562#6"/>
    <trip id="evening_329" depart="61529.00" from="-190041495#2" to="-190049574#0"/>
    <trip id="evening_330" depart="61530.00" from="190041517#6" to="-213174463#0"/>
    <trip id="evening_331" depart="61531.00" from="796894481" to="-190041724#4"/>
    <trip id="evening_332" depart="61532.00" from="213174101#1" to="190041742#5"/>
    <trip id="evening_333" depart="61533.00" from="213174331#1" to="-213173972#13"/>
    <trip id="evening_334" depart="61534.00" from="141596942#1" to="1082228289"/>
    <trip id="evening_335" depart="61535.00" from="-649374910#4" to="213174869#0"/>
    <trip id="evening_336" depart="61536.00" from="753609122" to="-213174485"/>
    <trip id="evening_337" depart="61537.00" from="190041736#1" to="190041745#4"/>
    <trip id="evening_338" depart="61538.00" from="213173977#2" to="542597846#3"/>
    <trip id="evening_339" depart="61539.00" from="-212744345#0" to="-213173945#0"/>
    <trip id="evening_340" depart="61540.00" from="190049602#0" to="-190049602#2"/>
    <trip id="evening_341" depart="61541.00" from="-190049628#4" to="-190041517#3"/>
    <trip id="evening_342" depart="61542.00" from="-1055445116" to="1082228289"/>
    <trip id="evening_343" depart="61543.00" from="190041665" to="-213174412#10"/>
    <trip id="evening_344" depart="61544.00" from="-213173972#3" to="213173953#2"/>
    <trip id="evening_345" depart="61545.00" from="212682110#3" to="1082256192"/>
    <trip id="evening_346" depart="61546.00" from="190054562#0" to="422135515#9"/>
    <trip id="evening_347" depart="61547.00" from="213174319#0" to="190044995#6"/>