<?xml version="1.0" encoding="UTF-8"?>

<!-- generated on 2025-06-23 12:02:11.010256 by randomTrips.py v1_23_1+0000-676720d13f6
<configuration>
    <net-file value="C:\Users\009tu\Downloads\SRIP\traffic_prediction\suburban\suburban.net.xml"/>
    <output-trip-file value="C:\Users\009tu\Downloads\SRIP\traffic_prediction\suburban\evening_peak.trips.xml"/>
    <prefix value="evening_"/>
    <begin value="61200.0"/>
    <end value="68400.0"/>
    <period value="1.0"/>
</configuration>
-->

<routes xmlns:xsi="http://www.w3.org/2001/XMLSchema-instance" xsi:noNamespaceSchemaLocation="http://sumo.dlr.de/xsd/routes_file.xsd">
    <trip id="evening_0" depart="61200.00" from="370186849#5" to="-1187840226"/>
    <trip id="evening_1" depart="61201.00" from="-423591168#0" to="-423590917#10"/>
    <trip id="evening_2" depart="61202.00" from="423590921#8" to="423552763#0"/>
    <trip id="evening_3" depart="61203.00" from="423737619#1" to="-168928124#30"/>
    <trip id="evening_4" depart="61204.00" from="-423779399#4" to="-1190512353#0"/>
    <trip id="evening_5" depart="61205.00" from="-423590909#5" to="1187806367#0"/>
    <trip id="evening_6" depart="61206.00" from="-1187840221#0" to="-423590890#2"/>
    <trip id="evening_7" depart="61207.00" from="374688974#1" to="1244281423#2"/>
    <trip id="evening_8" depart="61208.00" from="-423590912#15" to="207565747#20"/>
    <trip id="evening_9" depart="61209.00" from="423591292#14" to="-1081317173#2"/>
    <trip id="evening_10" depart="61210.00" from="423591282#4" to="423590891#7"/>
    <trip id="evening_11" depart="61211.00" from="-423607554#1" to="-423552646#5"/>
    <trip id="evening_12" depart="61212.00" from="423830467#5" to="-423607573#0"/>
    <trip id="evening_13" depart="61213.00" from="-168928125#4" to="-207565747#9"/>
    <trip id="evening_14" depart="61214.00" from="423607609#1" to="257886428#4"/>
    <trip id="evening_15" depart="61215.00" from="423591285#3" to="423590944"/>
    <trip id="evening_16" depart="61216.00" from="1236544133" to="488174453#3"/>
    <trip id="evening_17" depart="61217.00" from="-423627897#1" to="1282772786"/>
    <trip id="evening_18" depart="61218.00" from="423591331#4" to="369837717#5"/>
    <trip id="evening_19" depart="61219.00" from="423618524#3" to="168928124#30"/>
    <trip id="evening_20" depart="61220.00" from="423559514#2" to="-1238263786#0"/>
    <trip id="evening_21" depart="61221.00" from="-423590917#4" to="-423591254#3"/>
    <trip id="evening_22" depart="61222.00" from="-168928009#8" to="-423590952#1"/>
    <trip id="evening_23" depart="61223.00" from="-235103510#17" to="-423591205#0"/>
    <trip id="evening_24" depart="61224.00" from="370186845#3" to="-423627874#0"/>
    <trip id="evening_25" depart="61225.00" from="-423627854#0" to="-423590902#9"/>
    <trip id="evening_26" depart="61226.00" from="-423591159#21" to="423830212#8"/>
    <trip id="evening_27" depart="61227.00" from="374688966#0" to="313905501#11"/>
    <trip id="evening_28" depart="61228.00" from="-423552715#0" to="423590939"/>
    <trip id="evening_29" depart="61229.00" from="-423552650#4" to="-423737599#1"/>
    <trip id="evening_30" depart="61230.00" from="717522304#0" to="374688967#1"/>
    <trip id="evening_31" depart="61231.00" from="1244281591#6" to="423552795#3"/>
    <trip id="evening_32" depart="61232.00" from="423607573#0" to="423591199#0"/>
    <trip id="evening_33" depart="61233.00" from="-423590919#1" to="-1214795085#1"/>
    <trip id="evening_34" depart="61234.00" from="-423591308#6" to="-423591162#3"/>
    <trip id="evening_35" depart="61235.00" from="-423590902#1" to="423830307#2"/>
    <trip id="evening_36" depart="61236.00" from="423627891#4" to="-423591317#4"/>
    <trip id="evening_37" depart="61237.00" from="374688985#0" to="-423737639#1"/>
    <trip id="evening_38" depart="61238.00" from="423779386" to="-423867521#1"/>
    <trip id="evening_39" depart="61239.00" from="-423591159#1" to="-423591060#20"/>
    <trip id="evening_40" depart="61240.00" from="1282730054" to="-423591159#28"/>
    <trip id="evening_41" depart="61241.00" from="168928124#19" to="423737639#1"/>
    <trip id="evening_42" depart="61242.00" from="-423737631#1" to="-423590914#11"/>
    <trip id="evening_43" depart="61243.00" from="760136435#3" to="1187835583"/>
    <trip id="evening_44" depart="61244.00" from="-168928124#6" to="-1238270505"/>
    <trip id="evening_45" depart="61245.00" from="-235115525#6" to="370186846#2"/>
    <trip id="evening_46" depart="61246.00" from="423591241#1" to="-423779516"/>
    <trip id="evening_47" depart="61247.00" from="-1244281591#3" to="-423737610#0"/>
    <trip id="evening_48" depart="61248.00" from="721586833" to="1236548660#0"/>
    <trip id="evening_49" depart="61249.00" from="423867631#0" to="423627841#0"/>
    <trip id="evening_50" depart="61250.00" from="-1081325124" to="423590917#10"/>
    <trip id="evening_51" depart="61251.00" from="423552744#1" to="1238289073#1"/>
    <trip id="evening_52" depart="61252.00" from="-423591159#20" to="374688972"/>
    <trip id="evening_53" depart="61253.00" from="-257886611#10" to="-423830307#10"/>
    <trip id="evening_54" depart="61254.00" from="-423830390#2" to="423830458#1"/>
    <trip id="evening_55" depart="61255.00" from="423627891#0" to="-423591159#6"/>
    <trip id="evening_56" depart="61256.00" from="1081317173#1" to="-423552761#1"/>
    <trip id="evening_57" depart="61257.00" from="423754784#1" to="423627891#0"/>
    <trip id="evening_58" depart="61258.00" from="-423591267#0" to="374688965#0"/>
    <trip id="evening_59" depart="61259.00" from="235103510#49" to="-423552644#6"/>
    <trip id="evening_60" depart="61260.00" from="423591142#0" to="1244281200#1"/>
    <trip id="evening_61" depart="61261.00" from="423591182#0" to="1236550873#0"/>
    <trip id="evening_62" depart="61262.00" from="-1039518915#2" to="-423607481#3"/>
    <trip id="evening_63" depart="61263.00" from="-1185435870#2" to="423779524#0"/>
    <trip id="evening_64" depart="61264.00" from="423737569#1" to="423607542#0"/>
    <trip id="evening_65" depart="61265.00" from="-423591292#1" to="-1244281422#9"/>
    <trip id="evening_66" depart="61266.00" from="423737568#0" to="423830382#0"/>
    <trip id="evening_67" depart="61267.00" from="-168928123#9" to="1081308827"/>
    <trip id="evening_68" depart="61268.00" from="-1310012652#0" to="423591159#19"/>
    <trip id="evening_69" depart="61269.00" from="423591159#1" to="-369837722#7"/>
    <trip id="evening_70" depart="61270.00" from="-423867627#4" to="1244498024"/>
    <trip id="evening_71" depart="61271.00" from="-423591159#10" to="423627897#0"/>
    <trip id="evening_72" depart="61272.00" from="-423779429" to="-423590906#3"/>
    <trip id="evening_73" depart="61273.00" from="1236550873#2" to="423590947"/>
    <trip id="evening_74" depart="61274.00" from="-423559514#3" to="-423591311#0"/>
    <trip id="evening_75" depart="61275.00" from="719639497#1" to="423552644#5"/>
    <trip id="evening_76" depart="61276.00" from="-423830207#2" to="1210951172"/>
    <trip id="evening_77" depart="61277.00" from="-369837703#0" to="-423590917#5"/>
    <trip id="evening_78" depart="61278.00" from="-423607544#2" to="207565747#15"/>
    <trip id="evening_79" depart="61279.00" from="-423590919#16" to="-423590914#5"/>
    <trip id="evening_80" depart="61280.00" from="-1310798981#1" to="370186850#2"/>
    <trip id="evening_81" depart="61281.00" from="-423590919#1" to="423754730"/>
    <trip id="evening_82" depart="61282.00" from="423607663#2" to="-1387997655"/>
    <trip id="evening_83" depart="61283.00" from="-423590966" to="423552716#5"/>
    <trip id="evening_84" depart="61284.00" from="-423590906#0" to="-370186849#12"/>
    <trip id="evening_85" depart="61285.00" from="423830212#11" to="168928122#7"/>
    <trip id="evening_86" depart="61286.00" from="-423867599#1" to="423591239"/>
    <trip id="evening_87" depart="61287.00" from="423591288#1" to="-423552803#0"/>
    <trip id="evening_88" depart="61288.00" from="-207565747#22" to="-423830214#2"/>
    <trip id="evening_89" depart="61289.00" from="-423779441#1" to="-488174459#0"/>
    <trip id="evening_90" depart="61290.00" from="423590916#9" to="423552752#0"/>
    <trip id="evening_91" depart="61291.00" from="58472974#0" to="-235103510#18"/>
    <trip id="evening_92" depart="61292.00" from="-423737637#0" to="-423607598#0"/>
    <trip id="evening_93" depart="61293.00" from="423618524#3" to="-423591076#0"/>
    <trip id="evening_94" depart="61294.00" from="-423552795#1" to="-423830456#0"/>
    <trip id="evening_95" depart="61295.00" from="-423779399#4" to="-423591208#0"/>
    <trip id="evening_96" depart="61296.00" from="-423591060#10" to="423779468"/>
    <trip id="evening_97" depart="61297.00" from="-423830214#3" to="423627841#11"/>
    <trip id="evening_98" depart="61298.00" from="1244281422#12" to="-1238289074"/>
    <trip id="evening_99" depart="61299.00" from="875150164#4" to="423607568#1"/>
    <trip id="evening_100" depart="61300.00" from="423867617" to="423779506#1"/>
    <trip id="evening_101" depart="61301.00" from="423607615#0" to="-423552712#0"/>
    <trip id="evening_102" depart="61302.00" from="-717522304#1" to="-423590908#4"/>
    <trip id="evening_103" depart="61303.00" from="-423737634#0" to="-1244281423#3"/>
    <trip id="evening_104" depart="61304.00" from="-423737568#2" to="58472976#3"/>
    <trip id="evening_105" depart="61305.00" from="-423591159#11" to="423591236#2"/>
    <trip id="evening_106" depart="61306.00" from="-423830404#2" to="-423779538"/>
    <trip id="evening_107" depart="61307.00" from="423830469#0" to="719639497#4"/>
    <trip id="evening_108" depart="61308.00" from="1244281591#1" to="423590916#1"/>
    <trip id="evening_109" depart="61309.00" from="-423552642#5" to="-423591276#2"/>
    <trip id="evening_110" depart="61310.00" from="423867614#1" to="168928124#9"/>
    <trip id="evening_111" depart="61311.00" from="1238270503" to="423591077"/>
    <trip id="evening_112" depart="61312.00" from="-1244281422#1" to="202969533#20"/>
    <trip id="evening_113" depart="61313.00" from="1081319994#1" to="423607658#5"/>
    <trip id="evening_114" depart="61314.00" from="-423552645#6" to="423867482#2"/>
    <trip id="evening_115" depart="61315.00" from="-168928011#0" to="-423552792#0"/>
    <trip id="evening_116" depart="61316.00" from="202969533#3" to="423552758#4"/>
    <trip id="evening_117" depart="61317.00" from="-423590939" to="-369837704#4"/>
    <trip id="evening_118" depart="61318.00" from="423737614#5" to="-423591060#18"/>
    <trip id="evening_119" depart="61319.00" from="202969533#26" to="369837718#0"/>
    <trip id="evening_120" depart="61320.00" from="-423754794" to="202969533#18"/>
    <trip id="evening_121" depart="61321.00" from="1187841522#6" to="423830210#8"/>
    <trip id="evening_122" depart="61322.00" from="-423590893#0" to="423590914#1"/>
    <trip id="evening_123" depart="61323.00" from="-423590973" to="-423737639#2"/>
    <trip id="evening_124" depart="61324.00" from="423552700" to="-423591283#1"/>
    <trip id="evening_125" depart="61325.00" from="-423591309#3" to="423591115#1"/>
    <trip id="evening_126" depart="61326.00" from="-1311510897" to="-423867484#9"/>
    <trip id="evening_127" depart="61327.00" from="77645945#5" to="721586833"/>
    <trip id="evening_128" depart="61328.00" from="-1387997654" to="-423590908#1"/>
    <trip id="evening_129" depart="61329.00" from="-423591159#11" to="423830207#9"/>
    <trip id="evening_130" depart="61330.00" from="423737574" to="423737589#0"/>
    <trip id="evening_131" depart="61331.00" from="-423627847" to="-423552649#0"/>
    <trip id="evening_132" depart="61332.00" from="423607491#6" to="423590900#2"/>
    <trip id="evening_133" depart="61333.00" from="235115525#4" to="615472549#0"/>
    <trip id="evening_134" depart="61334.00" from="374688983#0" to="-1081317174#3"/>
    <trip id="evening_135" depart="61335.00" from="423591309#2" to="-423591282#3"/>
    <trip id="evening_136" depart="61336.00" from="423552648#5" to="423830245"/>
    <trip id="evening_137" depart="61337.00" from="-370186846#8" to="-313906350"/>
    <trip id="evening_138" depart="61338.00" from="-235103510#50" to="1288042210#4"/>
    <trip id="evening_139" depart="61339.00" from="-423591162#26" to="257886611#14"/>
    <trip id="evening_140" depart="61340.00" from="423590906#0" to="-423590897#2"/>
    <trip id="evening_141" depart="61341.00" from="369837722#4" to="-423591159#9"/>
    <trip id="evening_142" depart="61342.00" from="-717522308#6" to="423754730"/>
    <trip id="evening_143" depart="61343.00" from="423607598#3" to="-207565747#13"/>
    <trip id="evening_144" depart="61344.00" from="-423779441#1" to="-423591198#1"/>
    <trip id="evening_145" depart="61345.00" from="-1081308826" to="423591177#1"/>
    <trip id="evening_146" depart="61346.00" from="370186846#4" to="-423591159#23"/>
    <trip id="evening_147" depart="61347.00" from="423590980" to="1282772784"/>
    <trip id="evening_148" depart="61348.00" from="-423779458" to="-1081321555#3"/>
    <trip id="evening_149" depart="61349.00" from="-165071962#9" to="423737607#2"/>
    <trip id="evening_150" depart="61350.00" from="423737640#7" to="1244281423#6"/>
    <trip id="evening_151" depart="61351.00" from="423607499" to="202969533#11"/>
    <trip id="evening_152" depart="61352.00" from="-374688976#1" to="-369837722#1"/>
    <trip id="evening_153" depart="61353.00" from="-423591292#14" to="423737640#1"/>
    <trip id="evening_154" depart="61354.00" from="423591256#1" to="423627840#9"/>
    <trip id="evening_155" depart="61355.00" from="423737634#0" to="-423590904#2"/>
    <trip id="evening_156" depart="61356.00" from="-423591060#1" to="-235103510#42"/>
    <trip id="evening_157" depart="61357.00" from="423591189#0" to="423737611#1"/>
    <trip id="evening_158" depart="61358.00" from="-423754632#2" to="369837718#2"/>
    <trip id="evening_159" depart="61359.00" from="-423552642#4" to="423830187#1"/>
    <trip id="evening_160" depart="61360.00" from="423627840#2" to="55207537#1"/>
    <trip id="evening_161" depart="61361.00" from="423591292#8" to="423737599#0"/>
    <trip id="evening_162" depart="61362.00" from="-1187835577#0" to="423591027"/>
    <trip id="evening_163" depart="61363.00" from="-423607491#0" to="423830192#6"/>
    <trip id="evening_164" depart="61364.00" from="423591274#2" to="423627852"/>
    <trip id="evening_165" depart="61365.00" from="423591292#7" to="-423591162#24"/>
    <trip id="evening_166" depart="61366.00" from="423591219#0" to="-257886428#3"/>
    <trip id="evening_167" depart="61367.00" from="423627878#2" to="423627840#1"/>
    <trip id="evening_168" depart="61368.00" from="-423590914#11" to="423591321#4"/>
    <trip id="evening_169" depart="61369.00" from="-423830465#0" to="-423591295#0"/>
    <trip id="evening_170" depart="61370.00" from="423591254#2" to="-423590919#6"/>
    <trip id="evening_171" depart="61371.00" from="-1187832681#1" to="-423552805#6"/>
    <trip id="evening_172" depart="61372.00" from="-423591331#1" to="423627854#1"/>
    <trip id="evening_173" depart="61373.00" from="423867596#0" to="-423591209#1"/>
    <trip id="evening_174" depart="61374.00" from="370186850#8" to="-423754669"/>
    <trip id="evening_175" depart="61375.00" from="56723584#19" to="1238288378#2"/>
    <trip id="evening_176" depart="61376.00" from="423830244" to="-313906350"/>
    <trip id="evening_177" depart="61377.00" from="423867629#2" to="-423552761#0"/>
    <trip id="evening_178" depart="61378.00" from="423867482#2" to="-423591162#17"/>
    <trip id="evening_179" depart="61379.00" from="-235115525#11" to="-423830307#0"/>
    <trip id="evening_180" depart="61380.00" from="423590916#6" to="-423591315#5"/>
    <trip id="evening_181" depart="61381.00" from="235103510#33" to="1187840224"/>
    <trip id="evening_182" depart="61382.00" from="-423737588#4" to="168928124#26"/>
    <trip id="evening_183" depart="61383.00" from="-423591088#1" to="423590906#3"/>
    <trip id="evening_184" depart="61384.00" from="-1053642617#0" to="423779503"/>
    <trip id="evening_185" depart="61385.00" from="1236548660#3" to="423590916#4"/>
    <trip id="evening_186" depart="61386.00" from="423590990" to="423552726#0"/>
    <trip id="evening_187" depart="61387.00" from="-423627839#2" to="-1311510897"/>
    <trip id="evening_188" depart="61388.00" from="423552649#1" to="-423607531#0"/>
    <trip id="evening_189" depart="61389.00" from="-423591306#0" to="423607638#3"/>
    <trip id="evening_190" depart="61390.00" from="423590908#2" to="-423591285#0"/>
    <trip id="evening_191" depart="61391.00" from="-423591292#5" to="-423779387#0"/>
    <trip id="evening_192" depart="61392.00" from="-423737636#2" to="-423591274#0"/>
    <trip id="evening_193" depart="61393.00" from="-369837718#6" to="-423779506#1"/>
    <trip id="evening_194" depart="61394.00" from="423830301" to="423552764#2"/>
    <trip id="evening_195" depart="61395.00" from="423737640#0" to="369837703#3"/>
    <trip id="evening_196" depart="61396.00" from="-423591273#3" to="1244281591#8"/>
    <trip id="evening_197" depart="61397.00" from="-1039518915#1" to="-423591247#1"/>
    <trip id="evening_198" depart="61398.00" from="-423779493#0" to="168928125#12"/>
    <trip id="evening_199" depart="61399.00" from="374688984#1" to="-423867631#1"/>
    <trip id="evening_200" depart="61400.00" from="-423830212#6" to="-423590908#4"/>
    <trip id="evening_201" depart="61401.00" from="-423867600#0" to="423754650#0"/>
    <trip id="evening_202" depart="61402.00" from="423591256#1" to="-423552715#8"/>
    <trip id="evening_203" depart="61403.00" from="-168928123#4" to="1187842982#3"/>
    <trip id="evening_204" depart="61404.00" from="369837720#6" to="-423607560#1"/>
    <trip id="evening_205" depart="61405.00" from="423591311#3" to="423591110#0"/>
    <trip id="evening_206" depart="61406.00" from="423552712#1" to="-423590917#5"/>
    <trip id="evening_207" depart="61407.00" from="-423552810#4" to="-1187840223#3"/>
    <trip id="evening_208" depart="61408.00" from="-423591052#12" to="-717522307#2"/>
    <trip id="evening_209" depart="61409.00" from="423607620#0" to="-168927795#0"/>
    <trip id="evening_210" depart="61410.00" from="-423754764#1" to="370186849#4"/>
    <trip id="evening_211" depart="61411.00" from="-423552804#2" to="423590890#6"/>
    <trip id="evening_212" depart="61412.00" from="1039518915#0" to="-423591055#6"/>
    <trip id="evening_213" depart="61413.00" from="374688986#1" to="-1081317167"/>
    <trip id="evening_214" depart="61414.00" from="423591060#0" to="423591171#2"/>
    <trip id="evening_215" depart="61415.00" from="-235103510#48" to="-423830192#9"/>
    <trip id="evening_216" depart="61416.00" from="-423552720#0" to="423830489#0"/>
    <trip id="evening_217" depart="61417.00" from="1187835582" to="-1238289073#0"/>
    <trip id="evening_218" depart="61418.00" from="-423591055#9" to="423607643#0"/>
    <trip id="evening_219" depart="61419.00" from="-423830431#0" to="423591292#0"/>
    <trip id="evening_220" depart="61420.00" from="423552656" to="689336459#2"/>
    <trip id="evening_221" depart="61421.00" from="202969533#31" to="423830420#2"/>
    <trip id="evening_222" depart="61422.00" from="423737618#1" to="313906358#0"/>
    <trip id="evening_223" depart="61423.00" from="423590908#0" to="1186816514#0"/>
    <trip id="evening_224" depart="61424.00" from="423607481#4" to="1244281591#7"/>
    <trip id="evening_225" depart="61425.00" from="423737631#1" to="423591060#1"/>
    <trip id="evening_226" depart="61426.00" from="-423867627#0" to="-423591158#1"/>
    <trip id="evening_227" depart="61427.00" from="-423591055#0" to="374688960#1"/>
    <trip id="evening_228" depart="61428.00" from="423591159#1" to="1221668810#2"/>
    <trip id="evening_229" depart="61429.00" from="369837704#8" to="-423591191#1"/>
    <trip id="evening_230" depart="61430.00" from="-168927806#1" to="-423591241#1"/>
    <trip id="evening_231" depart="61431.00" from="-423591162#22" to="-423591325#8"/>
    <trip id="evening_232" depart="61432.00" from="1236550873#7" to="-374688947#9"/>
    <trip id="evening_233" depart="61433.00" from="-423590919#8" to="423552811#2"/>
    <trip id="evening_234" depart="61434.00" from="423590891#0" to="-1282730053"/>
    <trip id="evening_235" depart="61435.00" from="-423754658" to="1244281422#20"/>
    <trip id="evening_236" depart="61436.00" from="-423754777#2" to="-423590900#3"/>
    <trip id="evening_237" depart="61437.00" from="-423779388#2" to="423754729#0"/>
    <trip id="evening_238" depart="61438.00" from="168928124#15" to="423590890#1"/>
    <trip id="evening_239" depart="61439.00" from="423607654#3" to="423591162#20"/>
    <trip id="evening_240" depart="61440.00" from="-423737570#4" to="-1081317169"/>
    <trip id="evening_241" depart="61441.00" from="-423607628#0" to="423591129"/>
    <trip id="evening_242" depart="61442.00" from="423607638#2" to="423830456#1"/>
    <trip id="evening_243" depart="61443.00" from="-423754792" to="423591070#1"/>
    <trip id="evening_244" depart="61444.00" from="1238289073#1" to="257886428#1"/>
    <trip id="evening_245" depart="61445.00" from="-423590912#15" to="-423590914#11"/>
    <trip id="evening_246" depart="61446.00" from="-423830187#1" to="-1187842989"/>
    <trip id="evening_247" depart="61447.00" from="-423607531#0" to="423552780#1"/>
    <trip id="evening_248" depart="61448.00" from="-423737639#4" to="-423552698#1"/>
    <trip id="evening_249" depart="61449.00" from="-423867484#11" to="-369837722#2"/>
    <trip id="evening_250" depart="61450.00" from="313906358#1" to="-1187841522#5"/>
    <trip id="evening_251" depart="61451.00" from="-423737618#4" to="168928008#5"/>
    <trip id="evening_252" depart="61452.00" from="-1187840223#0" to="374688977#1"/>
    <trip id="evening_253" depart="61453.00" from="-370186849#4" to="-423867600#0"/>
    <trip id="evening_254" depart="61454.00" from="-1238270505" to="-423737597"/>
    <trip id="evening_255" depart="61455.00" from="-423590902#4" to="-423607491#2"/>
    <trip id="evening_256" depart="61456.00" from="423591135#1" to="-423737597"/>
    <trip id="evening_257" depart="61457.00" from="423591060#15" to="423607544#1"/>
    <trip id="evening_258" depart="61458.00" from="-423591060#7" to="-168928123#3"/>
    <trip id="evening_259" depart="61459.00" from="-1185435870#1" to="1244281200#2"/>
    <trip id="evening_260" depart="61460.00" from="875150164#8" to="-423607654#0"/>
    <trip id="evening_261" depart="61461.00" from="374688975#0" to="423591227#0"/>
    <trip id="evening_262" depart="61462.00" from="374688978#1" to="423591136#0"/>
    <trip id="evening_263" depart="61463.00" from="423830417" to="-423590890#6"/>
    <trip id="evening_264" depart="61464.00" from="-1185440250#0" to="-423552644#3"/>
    <trip id="evening_265" depart="61465.00" from="-369837718#14" to="423552716#8"/>
    <trip id="evening_266" depart="61466.00" from="1310006938" to="-423590912#4"/>
    <trip id="evening_267" depart="61467.00" from="423552805#6" to="423591162#29"/>
    <trip id="evening_268" depart="61468.00" from="-423552694" to="257886611#8"/>
    <trip id="evening_269" depart="61469.00" from="423591052#6" to="-313905501#5"/>
    <trip id="evening_270" depart="61470.00" from="423591315#1" to="423867579#0"/>
    <trip id="evening_271" depart="61471.00" from="-235115525#1" to="-1187841334#0"/>
    <trip id="evening_272" depart="61472.00" from="-423591301#1" to="423552767#0"/>
    <trip id="evening_273" depart="61473.00" from="423830474#1" to="-423737640#1"/>
    <trip id="evening_274" depart="61474.00" from="423590902#4" to="-168928009#13"/>
    <trip id="evening_275" depart="61475.00" from="423552786#3" to="370186846#1"/>
    <trip id="evening_276" depart="61476.00" from="-235103510#21" to="423591184#0"/>
    <trip id="evening_277" depart="61477.00" from="423607623#1" to="235103510#8"/>
    <trip id="evening_278" depart="61478.00" from="-369837703#0" to="58472970#3"/>
    <trip id="evening_279" depart="61479.00" from="423591196#3" to="-423607638#2"/>
    <trip id="evening_280" depart="61480.00" from="-423779464" to="-423627891#6"/>
    <trip id="evening_281" depart="61481.00" from="1081329788" to="-423607609#1"/>
    <trip id="evening_282" depart="61482.00" from="423607618#1" to="423591331#1"/>
    <trip id="evening_283" depart="61483.00" from="-235103510#42" to="423867482#2"/>
    <trip id="evening_284" depart="61484.00" from="370186845#3" to="423607508"/>
    <trip id="evening_285" depart="61485.00" from="423590891#6" to="-423830307#14"/>
    <trip id="evening_286" depart="61486.00" from="423590919#6" to="423867581#4"/>
    <trip id="evening_287" depart="61487.00" from="-423591162#12" to="423591306#1"/>
    <trip id="evening_288" depart="61488.00" from="1236548660#1" to="1040572766"/>
    <trip id="evening_289" depart="61489.00" from="-423830187#0" to="423590955"/>
    <trip id="evening_290" depart="61490.00" from="-423591159#4" to="423607656#2"/>
    <trip id="evening_291" depart="61491.00" from="423607481#5" to="-168928124#3"/>
    <trip id="evening_292" depart="61492.00" from="423737575#4" to="-423591055#5"/>
    <trip id="evening_293" depart="61493.00" from="-423846683#0" to="313905501#5"/>
    <trip id="evening_294" depart="61494.00" from="-423737568#2" to="-1187842987"/>
    <trip id="evening_295" depart="61495.00" from="423607625#0" to="-423552775#1"/>
    <trip id="evening_296" depart="61496.00" from="-423590902#7" to="423591280#2"/>
    <trip id="evening_297" depart="61497.00" from="-423607554#1" to="423737592#1"/>
    <trip id="evening_298" depart="61498.00" from="423552808#3" to="-423591196#3"/>
    <trip id="evening_299" depart="61499.00" from="-1081319996" to="423830397#1"/>
    <trip id="evening_300" depart="61500.00" from="-168928123#9" to="423590916#8"/>
    <trip id="evening_301" depart="61501.00" from="-717522308#6" to="423591154#1"/>
    <trip id="evening_302" depart="61502.00" from="423552786#3" to="374688984#1"/>
    <trip id="evening_303" depart="61503.00" from="-719639497#1" to="423591269#0"/>
    <trip id="evening_304" depart="61504.00" from="-168928125#6" to="-423590916#2"/>
    <trip id="evening_305" depart="61505.00" from="423552791#2" to="-423591299#2"/>
    <trip id="evening_306" depart="61506.00" from="168928123#2" to="-717522304#0"/>
    <trip id="evening_307" depart="61507.00" from="1221676676" to="-423830207#1"/>
    <trip id="evening_308" depart="61508.00" from="423591052#10" to="-423607536#1"/>
    <trip id="evening_309" depart="61509.00" from="423552810#5" to="-423591173#1"/>
    <trip id="evening_310" depart="61510.00" from="-423591060#2" to="-369837717#0"/>
    <trip id="evening_311" depart="61511.00" from="-423552802#1" to="-369837704#2"/>
    <trip id="evening_312" depart="61512.00" from="1236540249#2" to="423591159#28"/>
    <trip id="evening_313" depart="61513.00" from="-423552780#1" to="-423590909#9"/>
    <trip id="evening_314" depart="61514.00" from="-706562595" to="423590919#3"/>
    <trip id="evening_315" depart="61515.00" from="55207537#0" to="1236537353#0"/>
    <trip id="evening_316" depart="61516.00" from="-423591205#0" to="-235103510#3"/>
    <trip id="evening_317" depart="61517.00" from="-423552804#0" to="-423590919#5"/>
    <trip id="evening_318" depart="61518.00" from="-423552752#1" to="-1125146030"/>
    <trip id="evening_319" depart="61519.00" from="1236537354" to="-423591191#0"/>
    <trip id="evening_320" depart="61520.00" from="488174453#7" to="1288042210#4"/>
    <trip id="evening_321" depart="61521.00" from="423552803#4" to="-369837720#4"/>
    <trip id="evening_322" depart="61522.00" from="423627841#9" to="1081317174#4"/>
    <trip id="evening_323" depart="61523.00" from="423627882#1" to="168928124#11"/>
    <trip id="evening_324" depart="61524.00" from="-423867521#0" to="-423830372"/>
    <trip id="evening_325" depart="61525.00" from="-423552773#0" to="-1238497534#4"/>
    <trip id="evening_326" depart="61526.00" from="423830307#10" to="-719271340"/>
    <trip id="evening_327" depart="61527.00" from="423591319#3" to="-423754721#0"/>
    <trip id="evening_328" depart="61528.00" from="-165071962#11" to="370186849#2"/>
    <trip id="evening_329" depart="61529.00" from="-1238497534#0" to="-374688985#1"/>
    <trip id="evening_330" depart="61530.00" from="1288042210#3" to="-423591292#3"/>
    <trip id="evening_331" depart="61531.00" from="719271340" to="-369837703#0"/>
    <trip id="evening_332" depart="61532.00" from="423591153#0" to="257886611#22"/>
    <trip id="evening_333" depart="61533.00" from="423591236#0" to="-423590919#1"/>
    <trip id="evening_334" depart="61534.00" from="1187841522#5" to="-423830467#3"/>
    <trip id="evening_335" depart="61535.00" from="-423830212#9" to="423627840#6"/>
    <trip id="evening_336" depart="61536.00" from="717522305#1" to="-423591295#1"/>
    <trip id="evening_337" depart="61537.00" from="313905502#2" to="313905501#14"/>
    <trip id="evening_338" depart="61538.00" from="423590966" to="423830390#1"/>
    <trip id="evening_339" depart="61539.00" from="-423590899#1" to="-423590904#8"/>
    <trip id="evening_340" depart="61540.00" from="423552645#5" to="-423552648#4"/>
    <trip id="evening_341" depart="61541.00" from="-423552716#1" to="-168927806#3"/>
    <trip id="evening_342" depart="61542.00" from="-1074991205" to="-423830467#3"/>
    <trip id="evening_343" depart="61543.00" from="202969533#22" to="-423591260#0"/>
    <trip id="evening_344" depart="61544.00" from="-423590919#9" to="423590904#2"/>
    <trip id="evening_345" depart="61545.00" from="423552810#6" to="-423830489#3"/>