<?xml version="1.0" encoding="UTF-8"?>

<!-- generated on 2025-06-23 12:02:09.462977 by randomTrips.py v1_23_1+0000-676720d13f6
<configuration>
    <net-file value="C:\Users\009tu\Downloads\SRIP\traffic_prediction\suburban\suburban.net.xml"/>
    <output-trip-file value="C:\Users\009tu\Downloads\SRIP\traffic_prediction\suburban\morning_peak.trips.xml"/>
    <prefix value="morning_"/>
    <begin value="25200.0"/>
    <end value="32400.0"/>
    <period value="0.8"/>
</configuration>
-->

<routes xmlns:xsi="http://www.w3.org/2001/XMLSchema-instance" xsi:noNamespaceSchemaLocation="http://sumo.dlr.de/xsd/routes_file.xsd">
    <trip id="morning_0" depart="25200.00" from="370186849#5" to="-1187840226"/>
    <trip id="morning_1" depart="25200.80" from="-423591168#0" to="-423590917#10"/>
    <trip id="morning_2" depart="25201.60" from="423590921#8" to="423552763#0"/>
    <trip id="morning_3" depart="25202.40" from="423737619#1" to="-168928124#30"/>
    <trip id="morning_4" depart="25203.20" from="-423779399#4" to="-1190512353#0"/>
    <trip id="morning_5" depart="25204.00" from="-423590909#5" to="1187806367#0"/>
    <trip id="morning_6" depart="25204.80" from="-1187840221#0" to="-423590890#2"/>
    <trip id="morning_7" depart="25205.60" from="374688974#1" to="1244281423#2"/>
    <trip id="morning_8" depart="25206.40" from="-423590912#15" to="207565747#20"/>
    <trip id="morning_9" depart="25207.20" from="423591292#14" to="-1081317173#2"/>
    <trip id="morning_10" depart="25208.00" from="423591282#4" to="423590891#7"/>
    <trip id="morning_11" depart="25208.80" from="-423607554#1" to="-423552646#5"/>
    <trip id="morning_12" depart="25209.60" from="423830467#5" to="-423607573#0"/>
    <trip id="morning_13" depart="25210.40" from="-168928125#4" to="-207565747#9"/>
    <trip id="morning_14" depart="25211.20" from="423607609#1" to="257886428#4"/>
    <trip id="morning_15" depart="25212.00" from="423591285#3" to="423590944"/>
    <trip id="morning_16" depart="25212.80" from="1236544133" to="488174453#3"/>
    <trip id="morning_17" depart="25213.60" from="-423627897#1" to="1282772786"/>
    <trip id="morning_18" depart="25214.40" from="423591331#4" to="369837717#5"/>
    <trip id="morning_19" depart="25215.20" from="423618524#3" to="168928124#30"/>
    <trip id="morning_20" depart="25216.00" from="423559514#2" to="-1238263786#0"/>
    <trip id="morning_21" depart="25216.80" from="-423590917#4" to="-423591254#3"/>
    <trip id="morning_22" depart="25217.60" from="-168928009#8" to="-423590952#1"/>
    <trip id="morning_23" depart="25218.40" from="-235103510#17" to="-423591205#0"/>
    <trip id="morning_24" depart="25219.20" from="370186845#3" to="-423627874#0"/>
    <trip id="morning_25" depart="25220.00" from="-423627854#0" to="-423590902#9"/>
    <trip id="morning_26" depart="25220.80" from="-423591159#21" to="423830212#8"/>
    <trip id="morning_27" depart="25221.60" from="374688966#0" to="313905501#11"/>
    <trip id="morning_28" depart="25222.40" from="-423552715#0" to="423590939"/>
    <trip id="morning_29" depart="25223.20" from="-423552650#4" to="-423737599#1"/>
    <trip id="morning_30" depart="25224.00" from="717522304#0" to="374688967#1"/>
    <trip id="morning_31" depart="25224.80" from="1244281591#6" to="423552795#3"/>
    <trip id="morning_32" depart="25225.60" from="423607573#0" to="423591199#0"/>
    <trip id="morning_33" depart="25226.40" from="-423590919#1" to="-1214795085#1"/>
    <trip id="morning_34" depart="25227.20" from="-423591308#6" to="-423591162#3"/>
    <trip id="morning_35" depart="25228.00" from="-423590902#1" to="423830307#2"/>
    <trip id="morning_36" depart="25228.80" from="423627891#4" to="-423591317#4"/>
    <trip id="morning_37" depart="25229.60" from="374688985#0" to="-423737639#1"/>
    <trip id="morning_38" depart="25230.40" from="423779386" to="-423867521#1"/>
    <trip id="morning_39" depart="25231.20" from="-423591159#1" to="-423591060#20"/>
    <trip id="morning_40" depart="25232.00" from="1282730054" to="-423591159#28"/>
    <trip id="morning_41" depart="25232.80" from="168928124#19" to="423737639#1"/>
    <trip id="morning_42" depart="25233.60" from="-423737631#1" to="-423590914#11"/>
    <trip id="morning_43" depart="25234.40" from="760136435#3" to="1187835583"/>
    <trip id="morning_44" depart="25235.20" from="-168928124#6" to="-1238270505"/>
    <trip id="morning_45" depart="25236.00" from="-235115525#6" to="370186846#2"/>
    <trip id="morning_46" depart="25236.80" from="423591241#1" to="-423779516"/>
    <trip id="morning_47" depart="25237.60" from="-1244281591#3" to="-423737610#0"/>
    <trip id="morning_48" depart="25238.40" from="721586833" to="1236548660#0"/>
    <trip id="morning_49" depart="25239.20" from="423867631#0" to="423627841#0"/>
    <trip id="morning_50" depart="25240.00" from="-1081325124" to="423590917#10"/>
    <trip id="morning_51" depart="25240.80" from="423552744#1" to="1238289073#1"/>
    <trip id="morning_52" depart="25241.60" from="-423591159#20" to="374688972"/>
    <trip id="morning_53" depart="25242.40" from="-257886611#10" to="-423830307#10"/>
    <trip id="morning_54" depart="25243.20" from="-423830390#2" to="423830458#1"/>
    <trip id="morning_55" depart="25244.00" from="423627891#0" to="-423591159#6"/>
    <trip id="morning_56" depart="25244.80" from="1081317173#1" to="-423552761#1"/>
    <trip id="morning_57" depart="25245.60" from="423754784#1" to="423627891#0"/>
    <trip id="morning_58" depart="25246.40" from="-423591267#0" to="374688965#0"/>
    <trip id="morning_59" depart="25247.20" from="235103510#49" to="-423552644#6"/>
    <trip id="morning_60" depart="25248.00" from="423591142#0" to="1244281200#1"/>
    <trip id="morning_61" depart="25248.80" from="423591182#0" to="1236550873#0"/>
    <trip id="morning_62" depart="25249.60" from="-1039518915#2" to="-423607481#3"/>
    <trip id="morning_63" depart="25250.40" from="-1185435870#2" to="423779524#0"/>
    <trip id="morning_64" depart="25251.20" from="423737569#1" to="423607542#0"/>
    <trip id="morning_65" depart="25252.00" from="-423591292#1" to="-1244281422#9"/>
    <trip id="morning_66" depart="25252.80" from="423737568#0" to="423830382#0"/>
    <trip id="morning_67" depart="25253.60" from="-168928123#9" to="1081308827"/>
    <trip id="morning_68" depart="25254.40" from="-1310012652#0" to="423591159#19"/>
    <trip id="morning_69" depart="25255.20" from="423591159#1" to="-369837722#7"/>
    <trip id="morning_70" depart="25256.00" from="-423867627#4" to="1244498024"/>
    <trip id="morning_71" depart="25256.80" from="-423591159#10" to="423627897#0"/>
    <trip id="morning_72" depart="25257.60" from="-423779429" to="-423590906#3"/>
    <trip id="morning_73" depart="25258.40" from="1236550873#2" to="423590947"/>
    <trip id="morning_74" depart="25259.20" from="-423559514#3" to="-423591311#0"/>
    <trip id="morning_75" depart="25260.00" from="719639497#1" to="423552644#5"/>
    <trip id="morning_76" depart="25260.80" from="-423830207#2" to="1210951172"/>
    <trip id="morning_77" depart="25261.60" from="-369837703#0" to="-423590917#5"/>
    <trip id="morning_78" depart="25262.40" from="-423607544#2" to="207565747#15"/>
    <trip id="morning_79" depart="25263.20" from="-423590919#16" to="-423590914#5"/>
    <trip id="morning_80" depart="25264.00" from="-1310798981#1" to="370186850#2"/>
    <trip id="morning_81" depart="25264.80" from="-423590919#1" to="423754730"/>
    <trip id="morning_82" depart="25265.60" from="423607663#2" to="-1387997655"/>
    <trip id="morning_83" depart="25266.40" from="-423590966" to="423552716#5"/>
    <trip id="morning_84" depart="25267.20" from="-423590906#0" to="-370186849#12"/>
    <trip id="morning_85" depart="25268.00" from="423830212#11" to="168928122#7"/>
    <trip id="morning_86" depart="25268.80" from="-423867599#1" to="423591239"/>
    <trip id="morning_87" depart="25269.60" from="423591288#1" to="-423552803#0"/>
    <trip id="morning_88" depart="25270.40" from="-207565747#22" to="-423830214#2"/>
    <trip id="morning_89" depart="25271.20" from="-423779441#1" to="-488174459#0"/>
    <trip id="morning_90" depart="25272.00" from="423590916#9" to="423552752#0"/>
    <trip id="morning_91" depart="25272.80" from="58472974#0" to="-235103510#18"/>
    <trip id="morning_92" depart="25273.60" from="-423737637#0" to="-423607598#0"/>
    <trip id="morning_93" depart="25274.40" from="423618524#3" to="-423591076#0"/>
    <trip id="morning_94" depart="25275.20" from="-423552795#1" to="-423830456#0"/>
    <trip id="morning_95" depart="25276.00" from="-423779399#4" to="-423591208#0"/>
    <trip id="morning_96" depart="25276.80" from="-423591060#10" to="423779468"/>
    <trip id="morning_97" depart="25277.60" from="-423830214#3" to="423627841#11"/>
    <trip id="morning_98" depart="25278.40" from="1244281422#12" to="-1238289074"/>
    <trip id="morning_99" depart="25279.20" from="875150164#4" to="423607568#1"/>
    <trip id="morning_100" depart="25280.00" from="423867617" to="423779506#1"/>
    <trip id="morning_101" depart="25280.80" from="423607615#0" to="-423552712#0"/>
    <trip id="morning_102" depart="25281.60" from="-717522304#1" to="-423590908#4"/>
    <trip id="morning_103" depart="25282.40" from="-423737634#0" to="-1244281423#3"/>
    <trip id="morning_104" depart="25283.20" from="-423737568#2" to="58472976#3"/>
    <trip id="morning_105" depart="25284.00" from="-423591159#11" to="423591236#2"/>
    <trip id="morning_106" depart="25284.80" from="-423830404#2" to="-423779538"/>
    <trip id="morning_107" depart="25285.60" from="423830469#0" to="719639497#4"/>
    <trip id="morning_108" depart="25286.40" from="1244281591#1" to="423590916#1"/>
    <trip id="morning_109" depart="25287.20" from="-423552642#5" to="-423591276#2"/>
    <trip id="morning_110" depart="25288.00" from="423867614#1" to="168928124#9"/>
    <trip id="morning_111" depart="25288.80" from="1238270503" to="423591077"/>
    <trip id="morning_112" depart="25289.60" from="-1244281422#1" to="202969533#20"/>
    <trip id="morning_113" depart="25290.40" from="1081319994#1" to="423607658#5"/>
    <trip id="morning_114" depart="25291.20" from="-423552645#6" to="423867482#2"/>
    <trip id="morning_115" depart="25292.00" from="-168928011#0" to="-423552792#0"/>
    <trip id="morning_116" depart="25292.80" from="202969533#3" to="423552758#4"/>
    <trip id="morning_117" depart="25293.60" from="-423590939" to="-369837704#4"/>
    <trip id="morning_118" depart="25294.40" from="423737614#5" to="-423591060#18"/>
    <trip id="morning_119" depart="25295.20" from="202969533#26" to="369837718#0"/>
    <trip id="morning_120" depart="25296.00" from="-423754794" to="202969533#18"/>
    <trip id="morning_121" depart="25296.80" from="1187841522#6" to="423830210#8"/>
    <trip id="morning_122" depart="25297.60" from="-423590893#0" to="423590914#1"/>
    <trip id="morning_123" depart="25298.40" from="-423590973" to="-423737639#2"/>
    <trip id="morning_124" depart="25299.20" from="423552700" to="-423591283#1"/>
    <trip id="morning_125" depart="25300.00" from="-423591309#3" to="423591115#1"/>
    <trip id="morning_126" depart="25300.80" from="-1311510897" to="-423867484#9"/>
    <trip id="morning_127" depart="25301.60" from="77645945#5" to="721586833"/>
    <trip id="morning_128" depart="25302.40" from="-1387997654" to="-423590908#1"/>
    <trip id="morning_129" depart="25303.20" from="-423591159#11" to="423830207#9"/>
    <trip id="morning_130" depart="25304.00" from="423737574" to="423737589#0"/>
    <trip id="morning_131" depart="25304.80" from="-423627847" to="-423552649#0"/>
    <trip id="morning_132" depart="25305.60" from="423607491#6" to="423590900#2"/>
    <trip id="morning_133" depart="25306.40" from="235115525#4" to="615472549#0"/>
    <trip id="morning_134" depart="25307.20" from="374688983#0" to="-1081317174#3"/>
    <trip id="morning_135" depart="25308.00" from="423591309#2" to="-423591282#3"/>
    <trip id="morning_136" depart="25308.80" from="423552648#5" to="423830245"/>
    <trip id="morning_137" depart="25309.60" from="-370186846#8" to="-313906350"/>
    <trip id="morning_138" depart="25310.40" from="-235103510#50" to="1288042210#4"/>
    <trip id="morning_139" depart="25311.20" from="-423591162#26" to="257886611#14"/>
    <trip id="morning_140" depart="25312.00" from="423590906#0" to="-423590897#2"/>
    <trip id="morning_141" depart="25312.80" from="369837722#4" to="-423591159#9"/>
    <trip id="morning_142" depart="25313.60" from="-717522308#6" to="423754730"/>
    <trip id="morning_143" depart="25314.40" from="423607598#3" to="-207565747#13"/>
    <trip id="morning_144" depart="25315.20" from="-423779441#1" to="-423591198#1"/>
    <trip id="morning_145" depart="25316.00" from="-1081308826" to="423591177#1"/>
    <trip id="morning_146" depart="25316.80" from="370186846#4" to="-423591159#23"/>
    <trip id="morning_147" depart="25317.60" from="423590980" to="1282772784"/>
    <trip id="morning_148" depart="25318.40" from="-423779458" to="-1081321555#3"/>
    <trip id="morning_149" depart="25319.20" from="-165071962#9" to="423737607#2"/>
    <trip id="morning_150" depart="25320.00" from="423737640#7" to="1244281423#6"/>
    <trip id="morning_151" depart="25320.80" from="423607499" to="202969533#11"/>
    <trip id="morning_152" depart="25321.60" from="-374688976#1" to="-369837722#1"/>
    <trip id="morning_153" depart="25322.40" from="-423591292#14" to="423737640#1"/>
    <trip id="morning_154" depart="25323.20" from="423591256#1" to="423627840#9"/>
    <trip id="morning_155" depart="25324.00" from="423737634#0" to="-423590904#2"/>
    <trip id="morning_156" depart="25324.80" from="-423591060#1" to="-235103510#42"/>
    <trip id="morning_157" depart="25325.60" from="423591189#0" to="423737611#1"/>
    <trip id="morning_158" depart="25326.40" from="-423754632#2" to="369837718#2"/>
    <trip id="morning_159" depart="25327.20" from="-423552642#4" to="423830187#1"/>
    <trip id="morning_160" depart="25328.00" from="423627840#2" to="55207537#1"/>
    <trip id="morning_161" depart="25328.80" from="423591292#8" to="423737599#0"/>
    <trip id="morning_162" depart="25329.60" from="-1187835577#0" to="423591027"/>
    <trip id="morning_163" depart="25330.40" from="-423607491#0" to="423830192#6"/>
    <trip id="morning_164" depart="25331.20" from="423591274#2" to="423627852"/>
    <trip id="morning_165" depart="25332.00" from="423591292#7" to="-423591162#24"/>
    <trip id="morning_166" depart="25332.80" from="423591219#0" to="-257886428#3"/>
    <trip id="morning_167" depart="25333.60" from="423627878#2" to="423627840#1"/>
    <trip id="morning_168" depart="25334.40" from="-423590914#11" to="423591321#4"/>
    <trip id="morning_169" depart="25335.20" from="-423830465#0" to="-423591295#0"/>
    <trip id="morning_170" depart="25336.00" from="423591254#2" to="-423590919#6"/>
    <trip id="morning_171" depart="25336.80" from="-1187832681#1" to="-423552805#6"/>
    <trip id="morning_172" depart="25337.60" from="-423591331#1" to="423627854#1"/>
    <trip id="morning_173" depart="25338.40" from="423867596#0" to="-423591209#1"/>
    <trip id="morning_174" depart="25339.20" from="370186850#8" to="-423754669"/>
    <trip id="morning_175" depart="25340.00" from="56723584#19" to="1238288378#2"/>
    <trip id="morning_176" depart="25340.80" from="423830244" to="-313906350"/>
    <trip id="morning_177" depart="25341.60" from="423867629#2" to="-423552761#0"/>
    <trip id="morning_178" depart="25342.40" from="423867482#2" to="-423591162#17"/>
    <trip id="morning_179" depart="25343.20" from="-235115525#11" to="-423830307#0"/>
    <trip id="morning_180" depart="25344.00" from="423590916#6" to="-423591315#5"/>
    <trip id="morning_181" depart="25344.80" from="235103510#33" to="1187840224"/>
    <trip id="morning_182" depart="25345.60" from="-423737588#4" to="168928124#26"/>
    <trip id="morning_183" depart="25346.40" from="-423591088#1" to="423590906#3"/>
    <trip id="morning_184" depart="25347.20" from="-1053642617#0" to="423779503"/>
    <trip id="morning_185" depart="25348.00" from="1236548660#3" to="423590916#4"/>
    <trip id="morning_186" depart="25348.80" from="423590990" to="423552726#0"/>
    <trip id="morning_187" depart="25349.60" from="-423627839#2" to="-1311510897"/>
    <trip id="morning_188" depart="25350.40" from="423552649#1" to="-423607531#0"/>
    <trip id="morning_189" depart="25351.20" from="-423591306#0" to="423607638#3"/>
    <trip id="morning_190" depart="25352.00" from="423590908#2" to="-423591285#0"/>
    <trip id="morning_191" depart="25352.80" from="-423591292#5" to="-423779387#0"/>
    <trip id="morning_192" depart="25353.60" from="-423737636#2" to="-423591274#0"/>
    <trip id="morning_193" depart="25354.40" from="-369837718#6" to="-423779506#1"/>
    <trip id="morning_194" depart="25355.20" from="423830301" to="423552764#2"/>
    <trip id="morning_195" depart="25356.00" from="423737640#0" to="369837703#3"/>
    <trip id="morning_196" depart="25356.80" from="-423591273#3" to="1244281591#8"/>
    <trip id="morning_197" depart="25357.60" from="-1039518915#1" to="-423591247#1"/>
    <trip id="morning_198" depart="25358.40" from="-423779493#0" to="168928125#12"/>
    <trip id="morning_199" depart="25359.20" from="374688984#1" to="-423867631#1"/>
    <trip id="morning_200" depart="25360.00" from="-423830212#6" to="-423590908#4"/>
    <trip id="morning_201" depart="25360.80" from="-423867600#0" to="423754650#0"/>
    <trip id="morning_202" depart="25361.60" from="423591256#1" to="-423552715#8"/>
    <trip id="morning_203" depart="25362.40" from="-168928123#4" to="1187842982#3"/>
    <trip id="morning_204" depart="25363.20" from="369837720#6" to="-423607560#1"/>
    <trip id="morning_205" depart="25364.00" from="423591311#3" to="423591110#0"/>
    <trip id="morning_206" depart="25364.80" from="423552712#1" to="-423590917#5"/>
    <trip id="morning_207" depart="25365.60" from="-423552810#4" to="-1187840223#3"/>
    <trip id="morning_208" depart="25366.40" from="-423591052#12" to="-717522307#2"/>
    <trip id="morning_209" depart="25367.20" from="423607620#0" to="-168927795#0"/>
    <trip id="morning_210" depart="25368.00" from="-423754764#1" to="370186849#4"/>
    <trip id="morning_211" depart="25368.80" from="-423552804#2" to="423590890#6"/>
    <trip id="morning_212" depart="25369.60" from="1039518915#0" to="-423591055#6"/>
    <trip id="morning_213" depart="25370.40" from="374688986#1" to="-1081317167"/>
    <trip id="morning_214" depart="25371.20" from="423591060#0" to="423591171#2"/>
    <trip id="morning_215" depart="25372.00" from="-235103510#48" to="-423830192#9"/>
    <trip id="morning_216" depart="25372.80" from="-423552720#0" to="423830489#0"/>
    <trip id="morning_217" depart="25373.60" from="1187835582" to="-1238289073#0"/>
    <trip id="morning_218" depart="25374.40" from="-423591055#9" to="423607643#0"/>
    <trip id="morning_219" depart="25375.20" from="-423830431#0" to="423591292#0"/>
    <trip id="morning_220" depart="25376.00" from="423552656" to="689336459#2"/>
    <trip id="morning_221" depart="25376.80" from="202969533#31" to="423830420#2"/>
    <trip id="morning_222" depart="25377.60" from="423737618#1" to="313906358#0"/>
    <trip id="morning_223" depart="25378.40" from="423590908#0" to="1186816514#0"/>
    <trip id="morning_224" depart="25379.20" from="423607481#4" to="1244281591#7"/>
    <trip id="morning_225" depart="25380.00" from="423737631#1" to="423591060#1"/>
    <trip id="morning_226" depart="25380.80" from="-423867627#0" to="-423591158#1"/>
    <trip id="morning_227" depart="25381.60" from="-423591055#0" to="374688960#1"/>
    <trip id="morning_228" depart="25382.40" from="423591159#1" to="1221668810#2"/>
    <trip id="morning_229" depart="25383.20" from="369837704#8" to="-423591191#1"/>
    <trip id="morning_230" depart="25384.00" from="-168927806#1" to="-423591241#1"/>
    <trip id="morning_231" depart="25384.80" from="-423591162#22" to="-423591325#8"/>
    <trip id="morning_232" depart="25385.60" from="1236550873#7" to="-374688947#9"/>
    <trip id="morning_233" depart="25386.40" from="-423590919#8" to="423552811#2"/>
    <trip id="morning_234" depart="25387.20" from="423590891#0" to="-1282730053"/>
    <trip id="morning_235" depart="25388.00" from="-423754658" to="1244281422#20"/>
    <trip id="morning_236" depart="25388.80" from="-423754777#2" to="-423590900#3"/>
    <trip id="morning_237" depart="25389.60" from="-423779388#2" to="423754729#0"/>
    <trip id="morning_238" depart="25390.40" from="168928124#15" to="423590890#1"/>
    <trip id="morning_239" depart="25391.20" from="423607654#3" to="423591162#20"/>
    <trip id="morning_240" depart="25392.00" from="-423737570#4" to="-1081317169"/>
    <trip id="morning_241" depart="25392.80" from="-423607628#0" to="423591129"/>
    <trip id="morning_242" depart="25393.60" from="423607638#2" to="423830456#1"/>
    <trip id="morning_243" depart="25394.40" from="-423754792" to="423591070#1"/>
    <trip id="morning_244" depart="25395.20" from="1238289073#1" to="257886428#1"/>
    <trip id="morning_245" depart="25396.00" from="-423590912#15" to="-423590914#11"/>
    <trip id="morning_246" depart="25396.80" from="-423830187#1" to="-1187842989"/>
    <trip id="morning_247" depart="25397.60" from="-423607531#0" to="423552780#1"/>
    <trip id="morning_248" depart="25398.40" from="-423737639#4" to="-423552698#1"/>
    <trip id="morning_249" depart="25399.20" from="-423867484#11" to="-369837722#2"/>
    <trip id="morning_250" depart="25400.00" from="313906358#1" to="-1187841522#5"/>
    <trip id="morning_251" depart="25400.80" from="-423737618#4" to="168928008#5"/>
    <trip id="morning_252" depart="25401.60" from="-1187840223#0" to="374688977#1"/>
    <trip id="morning_253" depart="25402.40" from="-370186849#4" to="-423867600#0"/>
    <trip id="morning_254" depart="25403.20" from="-1238270505" to="-423737597"/>
    <trip id="morning_255" depart="25404.00" from="-423590902#4" to="-423607491#2"/>
    <trip id="morning_256" depart="25404.80" from="423591135#1" to="-423737597"/>
    <trip id="morning_257" depart="25405.60" from="423591060#15" to="423607544#1"/>
    <trip id="morning_258" depart="25406.40" from="-423591060#7" to="-168928123#3"/>
    <trip id="morning_259" depart="25407.20" from="-1185435870#1" to="1244281200#2"/>
    <trip id="morning_260" depart="25408.00" from="875150164#8" to="-423607654#0"/>
    <trip id="morning_261" depart="25408.80" from="374688975#0" to="423591227#0"/>
    <trip id="morning_262" depart="25409.60" from="374688978#1" to="423591136#0"/>
    <trip id="morning_263" depart="25410.40" from="423830417" to="-423590890#6"/>
    <trip id="morning_264" depart="25411.20" from="-1185440250#0" to="-423552644#3"/>
    <trip id="morning_265" depart="25412.00" from="-369837718#14" to="423552716#8"/>
    <trip id="morning_266" depart="25412.80" from="1310006938" to="-423590912#4"/>
    <trip id="morning_267" depart="25413.60" from="423552805#6" to="423591162#29"/>
    <trip id="morning_268" depart="25414.40" from="-423552694" to="257886611#8"/>
    <trip id="morning_269" depart="25415.20" from="423591052#6" to="-313905501#5"/>
    <trip id="morning_270" depart="25416.00" from="423591315#1" to="423867579#0"/>
    <trip id="morning_271" depart="25416.80" from="-235115525#1" to="-1187841334#0"/>
    <trip id="morning_272" depart="25417.60" from="-423591301#1" to="423552767#0"/>
    <trip id="morning_273" depart="25418.40" from="423830474#1" to="-423737640#1"/>
    <trip id="morning_274" depart="25419.20" from="423590902#4" to="-168928009#13"/>
    <trip id="morning_275" depart="25420.00" from="423552786#3" to="370186846#1"/>
    <trip id="morning_276" depart="25420.80" from="-235103510#21" to="423591184#0"/>
    <trip id="morning_277" depart="25421.60" from="423607623#1" to="235103510#8"/>
    <trip id="morning_278" depart="25422.40" from="-369837703#0" to="58472970#3"/>
    <trip id="morning_279" depart="25423.20" from="423591196#3" to="-423607638#2"/>
    <trip id="morning_280" depart="25424.00" from="-423779464" to="-423627891#6"/>
    <trip id="morning_281" depart="25424.80" from="1081329788" to="-423607609#1"/>
    <trip id="morning_282" depart="25425.60" from="423607618#1" to="423591331#1"/>
    <trip id="morning_283" depart="25426.40" from="-235103510#42" to="423867482#2"/>
    <trip id="morning_284" depart="25427.20" from="370186845#3" to="423607508"/>
    <trip id="morning_285" depart="25428.00" from="423590891#6" to="-423830307#14"/>
    <trip id="morning_286" depart="25428.80" from="423590919#6" to="423867581#4"/>
    <trip id="morning_287" depart="25429.60" from="-423591162#12" to="423591306#1"/>
    <trip id="morning_288" depart="25430.40" from="1236548660#1" to="1040572766"/>
    <trip id="morning_289" depart="25431.20" from="-423830187#0" to="423590955"/>
    <trip id="morning_290" depart="25432.00" from="-423591159#4" to="423607656#2"/>
    <trip id="morning_291" depart="25432.80" from="423607481#5" to="-168928124#3"/>
    <trip id="morning_292" depart="25433.60" from="423737575#4" to="-423591055#5"/>
    <trip id="morning_293" depart="25434.40" from="-423846683#0" to="313905501#5"/>
    <trip id="morning_294" depart="25435.20" from="-423737568#2" to="-1187842987"/>
    <trip id="morning_295" depart="25436.00" from="423607625#0" to="-423552775#1"/>
    <trip id="morning_296" depart="25436.80" from="-423590902#7" to="423591280#2"/>
    <trip id="morning_297" depart="25437.60" from="-423607554#1" to="423737592#1"/>
    <trip id="morning_298" depart="25438.40" from="423552808#3" to="-423591196#3"/>
    <trip id="morning_299" depart="25439.20" from="-1081319996" to="423830397#1"/>
    <trip id="morning_300" depart="25440.00" from="-168928123#9" to="423590916#8"/>
    <trip id="morning_301" depart="25440.80" from="-717522308#6" to="423591154#1"/>
    <trip id="morning_302" depart="25441.60" from="423552786#3" to="374688984#1"/>
    <trip id="morning_303" depart="25442.40" from="-719639497#1" to="423591269#0"/>
    <trip id="morning_304" depart="25443.20" from="-168928125#6" to="-423590916#2"/>
    <trip id="morning_305" depart="25444.00" from="423552791#2" to="-423591299#2"/>
    <trip id="morning_306" depart="25444.80" from="168928123#2" to="-717522304#0"/>
    <trip id="morning_307" depart="25445.60" from="1221676676" to="-423830207#1"/>
    <trip id="morning_308" depart="25446.40" from="423591052#10" to="-423607536#1"/>
    <trip id="morning_309" depart="25447.20" from="423552810#5" to="-423591173#1"/>
    <trip id="morning_310" depart="25448.00" from="-423591060#2" to="-369837717#0"/>
    <trip id="morning_311" depart="25448.80" from="-423552802#1" to="-369837704#2"/>
    <trip id="morning_312" depart="25449.60" from="1236540249#2" to="423591159#28"/>
    <trip id="morning_313" depart="25450.40" from="-423552780#1" to="-423590909#9"/>
    <trip id="morning_314" depart="25451.20" from="-706562595" to="423590919#3"/>
    <trip id="morning_315" depart="25452.00" from="55207537#0" to="1236537353#0"/>
    <trip id="morning_316" depart="25452.80" from="-423591205#0" to="-235103510#3"/>
    <trip id="morning_317" depart="25453.60" from="-423552804#0" to="-423590919#5"/>
    <trip id="morning_318" depart="25454.40" from="-423552752#1" to="-1125146030"/>
    <trip id="morning_319" depart="25455.20" from="1236537354" to="-423591191#0"/>
    <trip id="morning_320" depart="25456.00" from="488174453#7" to="1288042210#4"/>
    <trip id="morning_321" depart="25456.80" from="423552803#4" to="-369837720#4"/>
    <trip id="morning_322" depart="25457.60" from="423627841#9" to="1081317174#4"/>
    <trip id="morning_323" depart="25458.40" from="423627882#1" to="168928124#11"/>
    <trip id="morning_324" depart="25459.20" from="-423867521#0" to="-423830372"/>
    <trip id="morning_325" depart="25460.00" from="-423552773#0" to="-1238497534#4"/>
    <trip id="morning_326" depart="25460.80" from="423830307#10" to="-719271340"/>
    <trip id="morning_327" depart="25461.60" from="423591319#3" to="-423754721#0"/>
    <trip id="morning_328" depart="25462.40" from="-165071962#11" to="370186849#2"/>
    <trip id="morning_329" depart="25463.20" from="-1238497534#0" to="-374688985#1"/>
    <trip id="morning_330" depart="25464.00" from="1288042210#3" to="-423591292#3"/>
    <trip id="morning_331" depart="25464.80" from="719271340" to="-369837703#0"/>
    <trip id="morning_332" depart="25465.60" from="423591153#0" to="257886611#22"/>
    <trip id="morning_333" depart="25466.40" from="423591236#0" to="-423590919#1"/>
    <trip id="morning_334" depart="25467.20" from="1187841522#5" to="-423830467#3"/>
    <trip id="morning_335" depart="25468.00" from="-423830212#9" to="423627840#6"/>
    <trip id="morning_336" depart="25468.80" from="717522305#1" to="-423591295#1"/>
    <trip id="morning_337" depart="25469.60" from="313905502#2" to="313905501#14"/>
    <trip id="morning_338" depart="25470.40" from="423590966" to="423830390#1"/>
    <trip id="morning_339" depart="25471.20" from="-423590899#1" to="-423590904#8"/>
    <trip id="morning_340" depart="25472.00" from="423552645#5" to="-423552648#4"/>
    <trip id="morning_341" depart="25472.80" from="-423552716#1" to="-168927806#3"/>
    <trip id="morning_342" depart="25473.60" from="-1074991205" to="-423830467#3"/>
    <trip id="morning_343" depart="25474.40" from="202969533#22" to="-423591260#0"/>
    <trip id="morning_344" depart="25475.20" from="-423590919#9" to="423590904#2"/>
    <trip id="morning_345" depart="25476.00" from="423552810#6" to="-423830489#3"/>