<?xml version="1.0" encoding="UTF-8"?>

<!-- generated on 2025-06-05 03:21:07.420427 by randomTrips.py v1_23_1+0000-676720d13f6
<configuration>
    <net-file value="suburban.net.xml"/>
    <output-trip-file value="suburban_morning.trips.xml"/>
    <begin value="25200.0"/>
    <end value="32400.0"/>
    <period value="1.5"/>
</configuration>
-->

<routes xmlns:xsi="http://www.w3.org/2001/XMLSchema-instance" xsi:noNamespaceSchemaLocation="http://sumo.dlr.de/xsd/routes_file.xsd">
    <trip id="0" depart="25200.00" from="370186849#5" to="-1187840226"/>
    <trip id="1" depart="25201.50" from="-423591168#0" to="-423590917#10"/>
    <trip id="2" depart="25203.00" from="423590921#8" to="423552763#0"/>
    <trip id="3" depart="25204.50" from="423737619#1" to="-168928124#30"/>
    <trip id="4" depart="25206.00" from="-423779399#4" to="-1190512353#0"/>
    <trip id="5" depart="25207.50" from="-423590909#5" to="1187806367#0"/>
    <trip id="6" depart="25209.00" from="-1187840221#0" to="-423590890#2"/>
    <trip id="7" depart="25210.50" from="374688974#1" to="1244281423#2"/>
    <trip id="8" depart="25212.00" from="-423590912#15" to="207565747#20"/>
    <trip id="9" depart="25213.50" from="423591292#14" to="-1081317173#2"/>
    <trip id="10" depart="25215.00" from="423591282#4" to="423590891#7"/>
    <trip id="11" depart="25216.50" from="-423607554#1" to="-423552646#5"/>
    <trip id="12" depart="25218.00" from="423830467#5" to="-423607573#0"/>
    <trip id="13" depart="25219.50" from="-168928125#4" to="-207565747#9"/>
    <trip id="14" depart="25221.00" from="423607609#1" to="257886428#4"/>
    <trip id="15" depart="25222.50" from="423591285#3" to="423590944"/>
    <trip id="16" depart="25224.00" from="1236544133" to="488174453#3"/>
    <trip id="17" depart="25225.50" from="-423627897#1" to="1282772786"/>
    <trip id="18" depart="25227.00" from="423591331#4" to="369837717#5"/>
    <trip id="19" depart="25228.50" from="423618524#3" to="168928124#30"/>
    <trip id="20" depart="25230.00" from="423559514#2" to="-1238263786#0"/>
    <trip id="21" depart="25231.50" from="-423590917#4" to="-423591254#3"/>
    <trip id="22" depart="25233.00" from="-168928009#8" to="-423590952#1"/>
    <trip id="23" depart="25234.50" from="-235103510#17" to="-423591205#0"/>
    <trip id="24" depart="25236.00" from="370186845#3" to="-423627874#0"/>
    <trip id="25" depart="25237.50" from="-423627854#0" to="-423590902#9"/>
    <trip id="26" depart="25239.00" from="-423591159#21" to="423830212#8"/>
    <trip id="27" depart="25240.50" from="374688966#0" to="313905501#11"/>
    <trip id="28" depart="25242.00" from="-423552715#0" to="423590939"/>
    <trip id="29" depart="25243.50" from="-423552650#4" to="-423737599#1"/>
    <trip id="30" depart="25245.00" from="717522304#0" to="374688967#1"/>
    <trip id="31" depart="25246.50" from="1244281591#6" to="423552795#3"/>
    <trip id="32" depart="25248.00" from="423607573#0" to="423591199#0"/>
    <trip id="33" depart="25249.50" from="-423590919#1" to="-1214795085#1"/>
    <trip id="34" depart="25251.00" from="-423591308#6" to="-423591162#3"/>
    <trip id="35" depart="25252.50" from="-423590902#1" to="423830307#2"/>
    <trip id="36" depart="25254.00" from="423627891#4" to="-423591317#4"/>
    <trip id="37" depart="25255.50" from="374688985#0" to="-423737639#1"/>
    <trip id="38" depart="25257.00" from="423779386" to="-423867521#1"/>
    <trip id="39" depart="25258.50" from="-423591159#1" to="-423591060#20"/>
    <trip id="40" depart="25260.00" from="1282730054" to="-423591159#28"/>
    <trip id="41" depart="25261.50" from="168928124#19" to="423737639#1"/>
    <trip id="42" depart="25263.00" from="-423737631#1" to="-423590914#11"/>
    <trip id="43" depart="25264.50" from="760136435#3" to="1187835583"/>
    <trip id="44" depart="25266.00" from="-168928124#6" to="-1238270505"/>
    <trip id="45" depart="25267.50" from="-235115525#6" to="370186846#2"/>
    <trip id="46" depart="25269.00" from="423591241#1" to="-423779516"/>
    <trip id="47" depart="25270.50" from="-1244281591#3" to="-423737610#0"/>
    <trip id="48" depart="25272.00" from="721586833" to="1236548660#0"/>
    <trip id="49" depart="25273.50" from="423867631#0" to="423627841#0"/>
    <trip id="50" depart="25275.00" from="-1081325124" to="423590917#10"/>
    <trip id="51" depart="25276.50" from="423552744#1" to="1238289073#1"/>
    <trip id="52" depart="25278.00" from="-423591159#20" to="374688972"/>
    <trip id="53" depart="25279.50" from="-257886611#10" to="-423830307#10"/>
    <trip id="54" depart="25281.00" from="-423830390#2" to="423830458#1"/>
    <trip id="55" depart="25282.50" from="423627891#0" to="-423591159#6"/>
    <trip id="56" depart="25284.00" from="1081317173#1" to="-423552761#1"/>
    <trip id="57" depart="25285.50" from="423754784#1" to="423627891#0"/>
    <trip id="58" depart="25287.00" from="-423591267#0" to="374688965#0"/>
    <trip id="59" depart="25288.50" from="235103510#49" to="-423552644#6"/>
    <trip id="60" depart="25290.00" from="423591142#0" to="1244281200#1"/>
    <trip id="61" depart="25291.50" from="423591182#0" to="1236550873#0"/>
    <trip id="62" depart="25293.00" from="-1039518915#2" to="-423607481#3"/>
    <trip id="63" depart="25294.50" from="-1185435870#2" to="423779524#0"/>
    <trip id="64" depart="25296.00" from="423737569#1" to="423607542#0"/>
    <trip id="65" depart="25297.50" from="-423591292#1" to="-1244281422#9"/>
    <trip id="66" depart="25299.00" from="423737568#0" to="423830382#0"/>
    <trip id="67" depart="25300.50" from="-168928123#9" to="1081308827"/>
    <trip id="68" depart="25302.00" from="-1310012652#0" to="423591159#19"/>
    <trip id="69" depart="25303.50" from="423591159#1" to="-369837722#7"/>
    <trip id="70" depart="25305.00" from="-423867627#4" to="1244498024"/>
    <trip id="71" depart="25306.50" from="-423591159#10" to="423627897#0"/>
    <trip id="72" depart="25308.00" from="-423779429" to="-423590906#3"/>
    <trip id="73" depart="25309.50" from="1236550873#2" to="423590947"/>
    <trip id="74" depart="25311.00" from="-423559514#3" to="-423591311#0"/>
    <trip id="75" depart="25312.50" from="719639497#1" to="423552644#5"/>
    <trip id="76" depart="25314.00" from="-423830207#2" to="1210951172"/>
    <trip id="77" depart="25315.50" from="-369837703#0" to="-423590917#5"/>
    <trip id="78" depart="25317.00" from="-423607544#2" to="207565747#15"/>
    <trip id="79" depart="25318.50" from="-423590919#16" to="-423590914#5"/>
    <trip id="80" depart="25320.00" from="-1310798981#1" to="370186850#2"/>
    <trip id="81" depart="25321.50" from="-423590919#1" to="423754730"/>
    <trip id="82" depart="25323.00" from="423607663#2" to="-1387997655"/>
    <trip id="83" depart="25324.50" from="-423590966" to="423552716#5"/>
    <trip id="84" depart="25326.00" from="-423590906#0" to="-370186849#12"/>
    <trip id="85" depart="25327.50" from="423830212#11" to="168928122#7"/>
    <trip id="86" depart="25329.00" from="-423867599#1" to="423591239"/>
    <trip id="87" depart="25330.50" from="423591288#1" to="-423552803#0"/>
    <trip id="88" depart="25332.00" from="-207565747#22" to="-423830214#2"/>
    <trip id="89" depart="25333.50" from="-423779441#1" to="-488174459#0"/>
    <trip id="90" depart="25335.00" from="423590916#9" to="423552752#0"/>
    <trip id="91" depart="25336.50" from="58472974#0" to="-235103510#18"/>
    <trip id="92" depart="25338.00" from="-423737637#0" to="-423607598#0"/>
    <trip id="93" depart="25339.50" from="423618524#3" to="-423591076#0"/>
    <trip id="94" depart="25341.00" from="-423552795#1" to="-423830456#0"/>
    <trip id="95" depart="25342.50" from="-423779399#4" to="-423591208#0"/>
    <trip id="96" depart="25344.00" from="-423591060#10" to="423779468"/>
    <trip id="97" depart="25345.50" from="-423830214#3" to="423627841#11"/>
    <trip id="98" depart="25347.00" from="1244281422#12" to="-1238289074"/>
    <trip id="99" depart="25348.50" from="875150164#4" to="423607568#1"/>
    <trip id="100" depart="25350.00" from="423867617" to="423779506#1"/>
    <trip id="101" depart="25351.50" from="423607615#0" to="-423552712#0"/>
    <trip id="102" depart="25353.00" from="-717522304#1" to="-423590908#4"/>
    <trip id="103" depart="25354.50" from="-423737634#0" to="-1244281423#3"/>
    <trip id="104" depart="25356.00" from="-423737568#2" to="58472976#3"/>
    <trip id="105" depart="25357.50" from="-423591159#11" to="423591236#2"/>
    <trip id="106" depart="25359.00" from="-423830404#2" to="-423779538"/>
    <trip id="107" depart="25360.50" from="423830469#0" to="719639497#4"/>
    <trip id="108" depart="25362.00" from="1244281591#1" to="423590916#1"/>
    <trip id="109" depart="25363.50" from="-423552642#5" to="-423591276#2"/>
    <trip id="110" depart="25365.00" from="423867614#1" to="168928124#9"/>
    <trip id="111" depart="25366.50" from="1238270503" to="423591077"/>
    <trip id="112" depart="25368.00" from="-1244281422#1" to="202969533#20"/>
    <trip id="113" depart="25369.50" from="1081319994#1" to="423607658#5"/>
    <trip id="114" depart="25371.00" from="-423552645#6" to="423867482#2"/>
    <trip id="115" depart="25372.50" from="-168928011#0" to="-423552792#0"/>
    <trip id="116" depart="25374.00" from="202969533#3" to="423552758#4"/>
    <trip id="117" depart="25375.50" from="-423590939" to="-369837704#4"/>
    <trip id="118" depart="25377.00" from="423737614#5" to="-423591060#18"/>
    <trip id="119" depart="25378.50" from="202969533#26" to="369837718#0"/>
    <trip id="120" depart="25380.00" from="-423754794" to="202969533#18"/>
    <trip id="121" depart="25381.50" from="1187841522#6" to="423830210#8"/>
    <trip id="122" depart="25383.00" from="-423590893#0" to="423590914#1"/>
    <trip id="123" depart="25384.50" from="-423590973" to="-423737639#2"/>
    <trip id="124" depart="25386.00" from="423552700" to="-423591283#1"/>
    <trip id="125" depart="25387.50" from="-423591309#3" to="423591115#1"/>
    <trip id="126" depart="25389.00" from="-1311510897" to="-423867484#9"/>
    <trip id="127" depart="25390.50" from="77645945#5" to="721586833"/>
    <trip id="128" depart="25392.00" from="-1387997654" to="-423590908#1"/>
    <trip id="129" depart="25393.50" from="-423591159#11" to="423830207#9"/>
    <trip id="130" depart="25395.00" from="423737574" to="423737589#0"/>
    <trip id="131" depart="25396.50" from="-423627847" to="-423552649#0"/>
    <trip id="132" depart="25398.00" from="423607491#6" to="423590900#2"/>
    <trip id="133" depart="25399.50" from="235115525#4" to="615472549#0"/>
    <trip id="134" depart="25401.00" from="374688983#0" to="-1081317174#3"/>
    <trip id="135" depart="25402.50" from="423591309#2" to="-423591282#3"/>
    <trip id="136" depart="25404.00" from="423552648#5" to="423830245"/>
    <trip id="137" depart="25405.50" from="-370186846#8" to="-313906350"/>
    <trip id="138" depart="25407.00" from="-235103510#50" to="1288042210#4"/>
    <trip id="139" depart="25408.50" from="-423591162#26" to="257886611#14"/>
    <trip id="140" depart="25410.00" from="423590906#0" to="-423590897#2"/>
    <trip id="141" depart="25411.50" from="369837722#4" to="-423591159#9"/>
    <trip id="142" depart="25413.00" from="-717522308#6" to="423754730"/>
    <trip id="143" depart="25414.50" from="423607598#3" to="-207565747#13"/>
    <trip id="144" depart="25416.00" from="-423779441#1" to="-423591198#1"/>
    <trip id="145" depart="25417.50" from="-1081308826" to="423591177#1"/>
    <trip id="146" depart="25419.00" from="370186846#4" to="-423591159#23"/>
    <trip id="147" depart="25420.50" from="423590980" to="1282772784"/>
    <trip id="148" depart="25422.00" from="-423779458" to="-1081321555#3"/>
    <trip id="149" depart="25423.50" from="-165071962#9" to="423737607#2"/>
    <trip id="150" depart="25425.00" from="423737640#7" to="1244281423#6"/>
    <trip id="151" depart="25426.50" from="423607499" to="202969533#11"/>
    <trip id="152" depart="25428.00" from="-374688976#1" to="-369837722#1"/>
    <trip id="153" depart="25429.50" from="-423591292#14" to="423737640#1"/>
    <trip id="154" depart="25431.00" from="423591256#1" to="423627840#9"/>
    <trip id="155" depart="25432.50" from="423737634#0" to="-423590904#2"/>
    <trip id="156" depart="25434.00" from="-423591060#1" to="-235103510#42"/>
    <trip id="157" depart="25435.50" from="423591189#0" to="423737611#1"/>
    <trip id="158" depart="25437.00" from="-423754632#2" to="369837718#2"/>
    <trip id="159" depart="25438.50" from="-423552642#4" to="423830187#1"/>
    <trip id="160" depart="25440.00" from="423627840#2" to="55207537#1"/>
    <trip id="161" depart="25441.50" from="423591292#8" to="423737599#0"/>
    <trip id="162" depart="25443.00" from="-1187835577#0" to="423591027"/>
    <trip id="163" depart="25444.50" from="-423607491#0" to="423830192#6"/>
    <trip id="164" depart="25446.00" from="423591274#2" to="423627852"/>
    <trip id="165" depart="25447.50" from="423591292#7" to="-423591162#24"/>
    <trip id="166" depart="25449.00" from="423591219#0" to="-257886428#3"/>
    <trip id="167" depart="25450.50" from="423627878#2" to="423627840#1"/>
    <trip id="168" depart="25452.00" from="-423590914#11" to="423591321#4"/>
    <trip id="169" depart="25453.50" from="-423830465#0" to="-423591295#0"/>
    <trip id="170" depart="25455.00" from="423591254#2" to="-423590919#6"/>
    <trip id="171" depart="25456.50" from="-1187832681#1" to="-423552805#6"/>
    <trip id="172" depart="25458.00" from="-423591331#1" to="423627854#1"/>
    <trip id="173" depart="25459.50" from="423867596#0" to="-423591209#1"/>
    <trip id="174" depart="25461.00" from="370186850#8" to="-423754669"/>
    <trip id="175" depart="25462.50" from="56723584#19" to="1238288378#2"/>
    <trip id="176" depart="25464.00" from="423830244" to="-313906350"/>
    <trip id="177" depart="25465.50" from="423867629#2" to="-423552761#0"/>
    <trip id="178" depart="25467.00" from="423867482#2" to="-423591162#17"/>
    <trip id="179" depart="25468.50" from="-235115525#11" to="-423830307#0"/>
    <trip id="180" depart="25470.00" from="423590916#6" to="-423591315#5"/>
    <trip id="181" depart="25471.50" from="235103510#33" to="1187840224"/>
    <trip id="182" depart="25473.00" from="-423737588#4" to="168928124#26"/>
    <trip id="183" depart="25474.50" from="-423591088#1" to="423590906#3"/>
    <trip id="184" depart="25476.00" from="-1053642617#0" to="423779503"/>
    <trip id="185" depart="25477.50" from="1236548660#3" to="423590916#4"/>
    <trip id="186" depart="25479.00" from="423590990" to="423552726#0"/>
    <trip id="187" depart="25480.50" from="-423627839#2" to="-1311510897"/>
    <trip id="188" depart="25482.00" from="423552649#1" to="-423607531#0"/>
    <trip id="189" depart="25483.50" from="-423591306#0" to="423607638#3"/>
    <trip id="190" depart="25485.00" from="423590908#2" to="-423591285#0"/>
    <trip id="191" depart="25486.50" from="-423591292#5" to="-423779387#0"/>
    <trip id="192" depart="25488.00" from="-423737636#2" to="-423591274#0"/>
    <trip id="193" depart="25489.50" from="-369837718#6" to="-423779506#1"/>
    <trip id="194" depart="25491.00" from="423830301" to="423552764#2"/>
    <trip id="195" depart="25492.50" from="423737640#0" to="369837703#3"/>
    <trip id="196" depart="25494.00" from="-423591273#3" to="1244281591#8"/>
    <trip id="197" depart="25495.50" from="-1039518915#1" to="-423591247#1"/>
    <trip id="198" depart="25497.00" from="-423779493#0" to="168928125#12"/>
    <trip id="199" depart="25498.50" from="374688984#1" to="-423867631#1"/>
    <trip id="200" depart="25500.00" from="-423830212#6" to="-423590908#4"/>
    <trip id="201" depart="25501.50" from="-423867600#0" to="423754650#0"/>
    <trip id="202" depart="25503.00" from="423591256#1" to="-423552715#8"/>
    <trip id="203" depart="25504.50" from="-168928123#4" to="1187842982#3"/>
    <trip id="204" depart="25506.00" from="369837720#6" to="-423607560#1"/>
    <trip id="205" depart="25507.50" from="423591311#3" to="423591110#0"/>
    <trip id="206" depart="25509.00" from="423552712#1" to="-423590917#5"/>
    <trip id="207" depart="25510.50" from="-423552810#4" to="-1187840223#3"/>
    <trip id="208" depart="25512.00" from="-423591052#12" to="-717522307#2"/>
    <trip id="209" depart="25513.50" from="423607620#0" to="-168927795#0"/>
    <trip id="210" depart="25515.00" from="-423754764#1" to="370186849#4"/>
    <trip id="211" depart="25516.50" from="-423552804#2" to="423590890#6"/>
    <trip id="212" depart="25518.00" from="1039518915#0" to="-423591055#6"/>
    <trip id="213" depart="25519.50" from="374688986#1" to="-1081317167"/>
    <trip id="214" depart="25521.00" from="423591060#0" to="423591171#2"/>
    <trip id="215" depart="25522.50" from="-235103510#48" to="-423830192#9"/>
    <trip id="216" depart="25524.00" from="-423552720#0" to="423830489#0"/>
    <trip id="217" depart="25525.50" from="1187835582" to="-1238289073#0"/>
    <trip id="218" depart="25527.00" from="-423591055#9" to="423607643#0"/>
    <trip id="219" depart="25528.50" from="-423830431#0" to="423591292#0"/>
    <trip id="220" depart="25530.00" from="423552656" to="689336459#2"/>
    <trip id="221" depart="25531.50" from="202969533#31" to="423830420#2"/>
    <trip id="222" depart="25533.00" from="423737618#1" to="313906358#0"/>
    <trip id="223" depart="25534.50" from="423590908#0" to="1186816514#0"/>
    <trip id="224" depart="25536.00" from="423607481#4" to="1244281591#7"/>
    <trip id="225" depart="25537.50" from="423737631#1" to="423591060#1"/>
    <trip id="226" depart="25539.00" from="-423867627#0" to="-423591158#1"/>
    <trip id="227" depart="25540.50" from="-423591055#0" to="374688960#1"/>
    <trip id="228" depart="25542.00" from="423591159#1" to="1221668810#2"/>
    <trip id="229" depart="25543.50" from="369837704#8" to="-423591191#1"/>
    <trip id="230" depart="25545.00" from="-168927806#1" to="-423591241#1"/>
    <trip id="231" depart="25546.50" from="-423591162#22" to="-423591325#8"/>
    <trip id="232" depart="25548.00" from="1236550873#7" to="-374688947#9"/>
    <trip id="233" depart="25549.50" from="-423590919#8" to="423552811#2"/>
    <trip id="234" depart="25551.00" from="423590891#0" to="-1282730053"/>
    <trip id="235" depart="25552.50" from="-423754658" to="1244281422#20"/>
    <trip id="236" depart="25554.00" from="-423754777#2" to="-423590900#3"/>
    <trip id="237" depart="25555.50" from="-423779388#2" to="423754729#0"/>
    <trip id="238" depart="25557.00" from="168928124#15" to="423590890#1"/>
    <trip id="239" depart="25558.50" from="423607654#3" to="423591162#20"/>
    <trip id="240" depart="25560.00" from="-423737570#4" to="-1081317169"/>
    <trip id="241" depart="25561.50" from="-423607628#0" to="423591129"/>
    <trip id="242" depart="25563.00" from="423607638#2" to="423830456#1"/>
    <trip id="243" depart="25564.50" from="-423754792" to="423591070#1"/>
    <trip id="244" depart="25566.00" from="1238289073#1" to="257886428#1"/>
    <trip id="245" depart="25567.50" from="-423590912#15" to="-423590914#11"/>
    <trip id="246" depart="25569.00" from="-423830187#1" to="-1187842989"/>
    <trip id="247" depart="25570.50" from="-423607531#0" to="423552780#1"/>
    <trip id="248" depart="25572.00" from="-423737639#4" to="-423552698#1"/>
    <trip id="249" depart="25573.50" from="-423867484#11" to="-369837722#2"/>
    <trip id="250" depart="25575.00" from="313906358#1" to="-1187841522#5"/>
    <trip id="251" depart="25576.50" from="-423737618#4" to="168928008#5"/>
    <trip id="252" depart="25578.00" from="-1187840223#0" to="374688977#1"/>
    <trip id="253" depart="25579.50" from="-370186849#4" to="-423867600#0"/>
    <trip id="254" depart="25581.00" from="-1238270505" to="-423737597"/>
    <trip id="255" depart="25582.50" from="-423590902#4" to="-423607491#2"/>
    <trip id="256" depart="25584.00" from="423591135#1" to="-423737597"/>
    <trip id="257" depart="25585.50" from="423591060#15" to="423607544#1"/>
    <trip id="258" depart="25587.00" from="-423591060#7" to="-168928123#3"/>
    <trip id="259" depart="25588.50" from="-1185435870#1" to="1244281200#2"/>
    <trip id="260" depart="25590.00" from="875150164#8" to="-423607654#0"/>
    <trip id="261" depart="25591.50" from="374688975#0" to="423591227#0"/>
    <trip id="262" depart="25593.00" from="374688978#1" to="423591136#0"/>
    <trip id="263" depart="25594.50" from="423830417" to="-423590890#6"/>
    <trip id="264" depart="25596.00" from="-1185440250#0" to="-423552644#3"/>
    <trip id="265" depart="25597.50" from="-369837718#14" to="423552716#8"/>
    <trip id="266" depart="25599.00" from="1310006938" to="-423590912#4"/>
    <trip id="267" depart="25600.50" from="423552805#6" to="423591162#29"/>
    <trip id="268" depart="25602.00" from="-423552694" to="257886611#8"/>
    <trip id="269" depart="25603.50" from="423591052#6" to="-313905501#5"/>
    <trip id="270" depart="25605.00" from="423591315#1" to="423867579#0"/>
    <trip id="271" depart="25606.50" from="-235115525#1" to="-1187841334#0"/>
    <trip id="272" depart="25608.00" from="-423591301#1" to="423552767#0"/>
    <trip id="273" depart="25609.50" from="423830474#1" to="-423737640#1"/>
    <trip id="274" depart="25611.00" from="423590902#4" to="-168928009#13"/>
    <trip id="275" depart="25612.50" from="423552786#3" to="370186846#1"/>
    <trip id="276" depart="25614.00" from="-235103510#21" to="423591184#0"/>
    <trip id="277" depart="25615.50" from="423607623#1" to="235103510#8"/>
    <trip id="278" depart="25617.00" from="-369837703#0" to="58472970#3"/>
    <trip id="279" depart="25618.50" from="423591196#3" to="-423607638#2"/>
    <trip id="280" depart="25620.00" from="-423779464" to="-423627891#6"/>
    <trip id="281" depart="25621.50" from="1081329788" to="-423607609#1"/>
    <trip id="282" depart="25623.00" from="423607618#1" to="423591331#1"/>
    <trip id="283" depart="25624.50" from="-235103510#42" to="423867482#2"/>
    <trip id="284" depart="25626.00" from="370186845#3" to="423607508"/>
    <trip id="285" depart="25627.50" from="423590891#6" to="-423830307#14"/>
    <trip id="286" depart="25629.00" from="423590919#6" to="423867581#4"/>
    <trip id="287" depart="25630.50" from="-423591162#12" to="423591306#1"/>
    <trip id="288" depart="25632.00" from="1236548660#1" to="1040572766"/>
    <trip id="289" depart="25633.50" from="-423830187#0" to="423590955"/>
    <trip id="290" depart="25635.00" from="-423591159#4" to="423607656#2"/>
    <trip id="291" depart="25636.50" from="423607481#5" to="-168928124#3"/>
    <trip id="292" depart="25638.00" from="423737575#4" to="-423591055#5"/>
    <trip id="293" depart="25639.50" from="-423846683#0" to="313905501#5"/>
    <trip id="294" depart="25641.00" from="-423737568#2" to="-1187842987"/>
    <trip id="295" depart="25642.50" from="423607625#0" to="-423552775#1"/>
    <trip id="296" depart="25644.00" from="-423590902#7" to="423591280#2"/>
    <trip id="297" depart="25645.50" from="-423607554#1" to="423737592#1"/>
    <trip id="298" depart="25647.00" from="423552808#3" to="-423591196#3"/>
    <trip id="299" depart="25648.50" from="-1081319996" to="423830397#1"/>
    <trip id="300" depart="25650.00" from="-168928123#9" to="423590916#8"/>
    <trip id="301" depart="25651.50" from="-717522308#6" to="423591154#1"/>
    <trip id="302" depart="25653.00" from="423552786#3" to="374688984#1"/>
    <trip id="303" depart="25654.50" from="-719639497#1" to="423591269#0"/>
    <trip id="304" depart="25656.00" from="-168928125#6" to="-423590916#2"/>
    <trip id="305" depart="25657.50" from="423552791#2" to="-423591299#2"/>
    <trip id="306" depart="25659.00" from="168928123#2" to="-717522304#0"/>
    <trip id="307" depart="25660.50" from="1221676676" to="-423830207#1"/>
    <trip id="308" depart="25662.00" from="423591052#10" to="-423607536#1"/>
    <trip id="309" depart="25663.50" from="423552810#5" to="-423591173#1"/>
    <trip id="310" depart="25665.00" from="-423591060#2" to="-369837717#0"/>
    <trip id="311" depart="25666.50" from="-423552802#1" to="-369837704#2"/>
    <trip id="312" depart="25668.00" from="1236540249#2" to="423591159#28"/>
    <trip id="313" depart="25669.50" from="-423552780#1" to="-423590909#9"/>
    <trip id="314" depart="25671.00" from="-706562595" to="423590919#3"/>
    <trip id="315" depart="25672.50" from="55207537#0" to="1236537353#0"/>
    <trip id="316" depart="25674.00" from="-423591205#0" to="-235103510#3"/>
    <trip id="317" depart="25675.50" from="-423552804#0" to="-423590919#5"/>
    <trip id="318" depart="25677.00" from="-423552752#1" to="-1125146030"/>
    <trip id="319" depart="25678.50" from="1236537354" to="-423591191#0"/>
    <trip id="320" depart="25680.00" from="488174453#7" to="1288042210#4"/>
    <trip id="321" depart="25681.50" from="423552803#4" to="-369837720#4"/>
    <trip id="322" depart="25683.00" from="423627841#9" to="1081317174#4"/>
    <trip id="323" depart="25684.50" from="423627882#1" to="168928124#11"/>
    <trip id="324" depart="25686.00" from="-423867521#0" to="-423830372"/>
    <trip id="325" depart="25687.50" from="-423552773#0" to="-1238497534#4"/>
    <trip id="326" depart="25689.00" from="423830307#10" to="-719271340"/>
    <trip id="327" depart="25690.50" from="423591319#3" to="-423754721#0"/>
    <trip id="328" depart="25692.00" from="-165071962#11" to="370186849#2"/>
    <trip id="329" depart="25693.50" from="-1238497534#0" to="-374688985#1"/>
    <trip id="330" depart="25695.00" from="1288042210#3" to="-423591292#3"/>
    <trip id="331" depart="25696.50" from="719271340" to="-369837703#0"/>
    <trip id="332" depart="25698.00" from="423591153#0" to="257886611#22"/>
    <trip id="333" depart="25699.50" from="423591236#0" to="-423590919#1"/>
    <trip id="334" depart="25701.00" from="1187841522#5" to="-423830467#3"/>
    <trip id="335" depart="25702.50" from="-423830212#9" to="423627840#6"/>
    <trip id="336" depart="25704.00" from="717522305#1" to="-423591295#1"/>
    <trip id="337" depart="25705.50" from="313905502#2" to="313905501#14"/>
    <trip id="338" depart="25707.00" from="423590966" to="423830390#1"/>
    <trip id="339" depart="25708.50" from="-423590899#1" to="-423590904#8"/>
    <trip id="340" depart="25710.00" from="423552645#5" to="-423552648#4"/>
    <trip id="341" depart="25711.50" from="-423552716#1" to="-168927806#3"/>
    <trip id="342" depart="25713.00" from="-1074991205" to="-423830467#3"/>
    <trip id="343" depart="25714.50" from="202969533#22" to="-423591260#0"/>
    <trip id="344" depart="25716.00" from="-423590919#9" to="423590904#2"/>
    <trip id="345" depart="25717.50" from="423552810#6" to="-423830489#3"/>
    <trip id="346" depart="25719.00" from="423552772#1" to="423779493#0"/>
    <trip id="347" depart="25720.50" from="423591221#0" to="369837722#5"/>
    <trip id="348" depart="25722.00" from="423552646#10" to="423830210#2"/>
    <trip id="349" depart="25723.50" from="-423779441#19" to="1244281423#0"/>
    <trip id="350" depart="25725.00" from="374688965#0" to="423754764#1"/>
    <trip id="351" depart="25726.50" from="423591327#3" to="-165071962#2"/>
    <trip id="352" depart="25728.00" from="-423552674" to="-423591302#2"/>
    <trip id="353" depart="25729.50" from="423591055#10" to="168928011#8"/>
    <trip id="354" depart="25731.00" from="-423591230#1" to="-369837718#6"/>
    <trip id="355" depart="25732.50" from="423552780#1" to="423590895#6"/>
    <trip id="356" depart="25734.00" from="423830307#2" to="1125146032#1"/>
    <trip id="357" depart="25735.50" from="-875150164#6" to="-168928122#7"/>
    <trip id="358" depart="25737.00" from="-1221676683#1" to="-423830217#1"/>
    <trip id="359" depart="25738.50" from="-423591321#2" to="-423591098#0"/>
    <trip id="360" depart="25740.00" from="-168928124#9" to="423867484#4"/>
    <trip id="361" depart="25741.50" from="423607520" to="168928124#18"/>
    <trip id="362" depart="25743.00" from="423830422" to="875150164#6"/>
    <trip id="363" depart="25744.50" from="423552704" to="-423591166#1"/>
    <trip id="364" depart="25746.00" from="-1221676687" to="423591146#0"/>
    <trip id="365" depart="25747.50" from="-423867562" to="423552645#6"/>
    <trip id="366" depart="25749.00" from="423779388#7" to="-423552773#0"/>
    <trip id="367" depart="25750.50" from="168928124#22" to="374688947#6"/>
    <trip id="368" depart="25752.00" from="-719639497#7" to="-168928126#3"/>
    <trip id="369" depart="25753.50" from="-423607612#0" to="-423607550#1"/>
    <trip id="370" depart="25755.00" from="423552685" to="423627838#7"/>
    <trip id="371" depart="25756.50" from="-423607481#3" to="423552811#0"/>
    <trip id="372" depart="25758.00" from="-423591228#2" to="423830347#1"/>
    <trip id="373" depart="25759.50" from="423591302#0" to="1275468530#1"/>
    <trip id="374" depart="25761.00" from="-423830404#1" to="-423591317#3"/>
    <trip id="375" depart="25762.50" from="-423591323#0" to="423867630#1"/>
    <trip id="376" depart="25764.00" from="-423737639#3" to="1187841523#1"/>
    <trip id="377" depart="25765.50" from="706562595" to="423552650#5"/>
    <trip id="378" depart="25767.00" from="1238270504#1" to="-423779441#15"/>
    <trip id="379" depart="25768.50" from="-423552787#2" to="-423627841#7"/>
    <trip id="380" depart="25770.00" from="423591095#1" to="369837722#8"/>
    <trip id="381" depart="25771.50" from="423591124#0" to="-423590897#2"/>
    <trip id="382" depart="25773.00" from="1244281270" to="423779509"/>
    <trip id="383" depart="25774.50" from="-423830207#3" to="423590893#0"/>